# created with PyMOL 3.1.3.1
@<TRIPOS>MOLECULE
2YEE_A
12 13 1                 
SMALL
USER_CHARGES
@<TRIPOS>ATOM
1	  N1	1.763	-10.594	-22.995	N.2	1	2EC1227	0.000	
2	  C2	0.926	-9.881	-22.228	C.2	1	2EC1227	0.000	
3	  N3	-0.339	-9.655	-22.604	N.2	1	2EC1227	0.000	
4	  C4	-0.795	-10.141	-23.764	C.2	1	2EC1227	0.000	
5	  C5	0.047	-10.878	-24.572	C.2	1	2EC1227	0.000	
6	  C6	1.350	-11.099	-24.163	C.2	1	2EC1227	0.000	
7	  N6	2.271	-11.880	-25.001	N.pl3	1	2EC1227	0.000	
8	  N7	-0.648	-11.239	-25.654	N.2	1	2EC1227	0.000	
9	  C8	-1.888	-10.745	-25.533	C.2	1	2EC1227	0.000	
10	 C9M	-3.176	-9.383	-23.873	C.3	1	2EC1227	0.000	
11	  N9	-1.980	-10.073	-24.377	N.2	1	2EC1227	0.000	
12	 C50	-3.601	-8.321	-24.862	C.3	1	2EC1227	0.000	
@<TRIPOS>BOND
1 1 2 ar
2 2 3 ar
3 3 4 ar
4 4 11 ar
5 4 5 ar
6 5 8 ar
7 1 6 ar
8 5 6 ar
9 6 7 1
10 8 9 ar
11 10 12 1
12 9 11 ar
13 10 11 1
@<TRIPOS>SUBSTRUCTURE
1	2EC1227	1	GROUP	1 A	2EC
