# created with PyMOL 3.1.3.1
@<TRIPOS>MOLECULE
2H55_A
29 32 1                 
SMALL
USER_CHARGES
@<TRIPOS>ATOM
1	 C7'	-5.137	-15.919	-23.457	C.3	1	DZ81001	0.000	
2	 C6'	-3.599	-13.124	-25.084	C.2	1	DZ81001	0.000	
3	 C5'	-4.348	-14.180	-24.575	C.2	1	DZ81001	0.000	
4	 C4'	-5.734	-14.080	-24.528	C.2	1	DZ81001	0.000	
5	 C3'	-6.347	-12.897	-24.926	C.2	1	DZ81001	0.000	
6	 O3'	-3.991	-15.427	-24.165	O.3	1	DZ81001	0.000	
7	 C2'	-5.602	-11.898	-25.542	C.2	1	DZ81001	0.000	
8	 C1'	-4.214	-11.991	-25.603	C.2	1	DZ81001	0.000	
9	 O1'	-6.250	-15.255	-24.074	O.3	1	DZ81001	0.000	
10	  N1	1.770	-10.433	-23.197	N.2	1	DZ81001	0.000	
11	  C2	0.973	-9.790	-22.332	C.2	1	DZ81001	0.000	
12	  N3	-0.322	-9.587	-22.612	N.2	1	DZ81001	0.000	
13	  C4	-0.877	-10.141	-23.698	C.2	1	DZ81001	0.000	
14	  C5	-0.072	-10.817	-24.607	C.2	1	DZ81001	0.000	
15	  C6	1.297	-10.865	-24.374	C.2	1	DZ81001	0.000	
16	  N6	2.098	-11.550	-25.186	N.pl3	1	DZ81001	0.000	
17	  N7	-0.834	-11.099	-25.662	N.2	1	DZ81001	0.000	
18	  C8	-2.075	-10.702	-25.390	C.2	1	DZ81001	0.000	
19	  N9	-2.008	-9.883	-24.343	N.2	1	DZ81001	0.000	
20	 C81	-3.312	-10.943	-26.260	C.3	1	DZ81001	0.000	
21	 C91	-3.210	-9.423	-23.630	C.3	1	DZ81001	0.000	
22	 C92	-3.607	-8.038	-24.149	C.3	1	DZ81001	0.000	
23	 C93	-2.546	-6.987	-23.813	C.3	1	DZ81001	0.000	
24	 C94	-2.028	-5.206	-22.268	C.3	1	DZ81001	0.000	
25	 N94	-2.800	-6.440	-22.471	N.3	1	DZ81001	0.000	
26	 C95	-2.468	-4.542	-20.962	C.3	1	DZ81001	0.000	
27	 C96	-0.532	-5.530	-22.233	C.3	1	DZ81001	0.000	
28	  F2	1.469	-9.374	-21.149	 F	1	DZ81001	0.000	
29	   I	-6.587	-10.161	-26.174	 I	1	DZ81001	0.000	
@<TRIPOS>BOND
1 1 9 1
2 2 3 ar
3 3 4 ar
4 3 6 1
5 4 5 ar
6 5 7 ar
7 1 6 1
8 7 29 1
9 2 8 ar
10 7 8 ar
11 4 9 1
12 10 15 ar
13 10 11 ar
14 11 28 1
15 11 12 ar
16 12 13 ar
17 13 14 ar
18 14 17 ar
19 14 15 ar
20 15 16 1
21 17 18 ar
22 18 20 1
23 13 19 ar
24 18 19 ar
25 8 20 1
26 19 21 1
27 21 22 1
28 22 23 1
29 24 25 1
30 24 26 1
31 23 25 1
32 24 27 1
@<TRIPOS>SUBSTRUCTURE
1	DZ81001	1	GROUP	1 A	DZ8
