# created with PyMOL 3.1.3.1
@<TRIPOS>MOLECULE
3VHA_A
39 42 2                 
SMALL
USER_CHARGES
@<TRIPOS>ATOM
1	  O1	-6.169	-28.551	-18.189	O.3	1	MES1	0.000	
2	 O1S	-5.048	-35.437	-20.190	O.3	1	MES1	0.000	
3	  C2	-7.044	-29.633	-17.846	C.3	1	MES1	0.000	
4	 O2S	-3.604	-34.180	-21.665	O.2	1	MES1	0.000	
5	  C3	-6.361	-30.968	-18.020	C.3	1	MES1	0.000	
6	 O3S	-5.712	-35.052	-22.482	O.2	1	MES1	0.000	
7	  N4	-5.889	-31.115	-19.431	N.3	1	MES1	0.000	
8	  C5	-5.033	-29.946	-19.817	C.3	1	MES1	0.000	
9	  C6	-5.773	-28.655	-19.555	C.3	1	MES1	0.000	
10	  C7	-5.187	-32.426	-19.647	C.3	1	MES1	0.000	
11	  C8	-5.795	-33.043	-20.855	C.3	1	MES1	0.000	
12	   S	-4.975	-34.547	-21.333	S.3	1	MES1	0.000	
13	  C1	-2.984	-9.968	-25.049	C.2	2	VHA237	0.000	
14	  C2	-2.226	-11.144	-24.960	C.2	2	VHA237	0.000	
15	  C3	-2.777	-12.367	-25.372	C.2	2	VHA237	0.000	
16	  C4	-2.021	-13.695	-25.319	C.3	2	VHA237	0.000	
17	  C5	-4.095	-12.393	-25.874	C.2	2	VHA237	0.000	
18	  C6	-4.824	-11.210	-25.959	C.2	2	VHA237	0.000	
19	  C7	-4.295	-9.986	-25.527	C.2	2	VHA237	0.000	
20	  O8	-5.054	-8.821	-25.570	O.3	2	VHA237	0.000	
21	  C9	-4.451	-7.608	-25.003	C.3	2	VHA237	0.000	
22	 C10	-5.379	-6.387	-24.763	C.3	2	VHA237	0.000	
23	 C11	-4.634	-5.174	-24.172	C.3	2	VHA237	0.000	
24	 C12	-4.179	-5.423	-22.727	C.3	2	VHA237	0.000	
25	 O13	-2.871	-6.054	-22.916	O.3	2	VHA237	0.000	
26	 C14	-2.299	-6.659	-21.847	C.2	2	VHA237	0.000	
27	 C15	-1.171	-7.426	-22.130	C.2	2	VHA237	0.000	
28	 C16	-2.720	-6.514	-20.515	C.2	2	VHA237	0.000	
29	 C17	-2.050	-7.177	-19.488	C.2	2	VHA237	0.000	
30	 C18	-0.907	-7.943	-19.780	C.2	2	VHA237	0.000	
31	 C19	-0.512	-8.089	-21.096	C.2	2	VHA237	0.000	
32	 S20	0.911	-9.086	-21.397	S.3	2	VHA237	0.000	
33	 C21	0.556	-10.037	-22.831	C.2	2	VHA237	0.000	
34	 N22	1.611	-10.505	-23.466	N.2	2	VHA237	0.000	
35	 C23	-0.744	-10.268	-23.281	C.2	2	VHA237	0.000	
36	 C24	-0.931	-10.971	-24.464	C.2	2	VHA237	0.000	
37	 N25	0.164	-11.403	-25.126	N.2	2	VHA237	0.000	
38	 C26	1.399	-11.219	-24.608	C.2	2	VHA237	0.000	
39	 N27	2.447	-11.648	-25.304	N.pl3	2	VHA237	0.000	
@<TRIPOS>BOND
1 1 3 1
2 1 9 1
3 3 5 1
4 5 7 1
5 7 8 1
6 7 10 1
7 8 9 1
8 10 11 1
9 11 12 1
10 2 12 1
11 4 12 2
12 6 12 2
13 13 14 ar
14 13 19 ar
15 14 15 ar
16 14 36 1
17 15 16 1
18 15 17 ar
19 17 18 ar
20 18 19 ar
21 19 20 1
22 20 21 1
23 21 22 1
24 22 23 1
25 23 24 1
26 24 25 1
27 25 26 1
28 26 27 ar
29 26 28 ar
30 27 31 ar
31 28 29 ar
32 29 30 ar
33 30 31 ar
34 31 32 1
35 32 33 1
36 33 34 ar
37 33 35 ar
38 34 38 ar
39 35 36 ar
40 36 37 ar
41 37 38 ar
42 38 39 1
@<TRIPOS>SUBSTRUCTURE
1	MES1	1	GROUP	1 A	MES
2	VHA237	13	GROUP	1 A	VHA
