# created with PyMOL 3.1.3.1
@<TRIPOS>MOLECULE
1UYC_A
25 27 1                 
SMALL
USER_CHARGES
@<TRIPOS>ATOM
1	  C1	-4.293	-11.665	-25.718	C.2	1	PU71224	0.000	
2	  N1	-0.823	-10.999	-25.595	N.2	1	PU71224	0.000	
3	  C2	-3.800	-12.780	-25.071	C.2	1	PU71224	0.000	
4	  N2	-2.001	-9.849	-24.162	N.2	1	PU71224	0.000	
5	  O2	-4.020	-14.886	-24.038	O.3	1	PU71224	0.000	
6	  C3	-4.662	-13.796	-24.685	C.2	1	PU71224	0.000	
7	  N3	1.857	-10.406	-23.141	N.2	1	PU71224	0.000	
8	  C4	-6.054	-13.726	-24.857	C.2	1	PU71224	0.000	
9	  N4	-0.327	-9.466	-22.503	N.2	1	PU71224	0.000	
10	  C5	-6.579	-12.588	-25.505	C.2	1	PU71224	0.000	
11	  N5	2.186	-11.538	-25.191	N.pl3	1	PU71224	0.000	
12	  C6	-5.685	-11.580	-25.935	C.2	1	PU71224	0.000	
13	  C8	-4.698	-16.070	-23.649	C.3	1	PU71224	0.000	
14	  C9	-3.296	-10.605	-26.155	C.3	1	PU71224	0.000	
15	 C10	-2.028	-10.475	-25.323	C.2	1	PU71224	0.000	
16	 C11	-0.040	-10.647	-24.557	C.2	1	PU71224	0.000	
17	 C12	-0.798	-9.927	-23.664	C.2	1	PU71224	0.000	
18	 C13	1.308	-10.848	-24.301	C.2	1	PU71224	0.000	
19	 C14	0.993	-9.657	-22.258	C.2	1	PU71224	0.000	
20	 C15	-3.211	-9.203	-23.610	C.3	1	PU71224	0.000	
21	 C16	-3.268	-7.678	-23.777	C.3	1	PU71224	0.000	
22	 C17	-3.771	-7.008	-25.056	C.3	1	PU71224	0.000	
23	 C18	-5.168	-7.260	-25.697	C.3	1	PU71224	0.000	
24	 C19	-7.587	-10.021	-26.272	C.3	1	PU71224	0.000	
25	 O20	-6.219	-10.453	-26.569	O.3	1	PU71224	0.000	
@<TRIPOS>BOND
1 1 14 1
2 2 16 ar
3 1 3 ar
4 4 20 1
5 5 13 1
6 3 6 ar
7 5 6 1
8 6 8 ar
9 9 19 ar
10 8 10 ar
11 10 12 ar
12 1 12 ar
13 14 15 1
14 2 15 ar
15 4 15 ar
16 16 17 ar
17 16 18 ar
18 4 17 ar
19 9 17 ar
20 7 18 ar
21 11 18 1
22 7 19 ar
23 20 21 1
24 21 22 1
25 22 23 1
26 24 25 1
27 12 25 1
@<TRIPOS>SUBSTRUCTURE
1	PU71224	1	GROUP	1 A	PU7
