# created with PyMOL 3.1.3.1
@<TRIPOS>MOLECULE
2XHR_A
25 27 1                 
SMALL
USER_CHARGES
@<TRIPOS>ATOM
1	CL23	-6.564	-11.527	-26.216	Cl	1	C0P1001	0.000	
2	CL26	-1.966	-13.932	-24.834	Cl	1	C0P1001	0.000	
3	 CL5	1.124	-9.710	-21.242	Cl	1	C0P1001	0.000	
4	  N1	2.476	-11.744	-25.512	N.pl3	1	C0P1001	0.000	
5	  C2	1.457	-11.315	-24.727	C.2	1	C0P1001	0.000	
6	  N3	1.783	-10.794	-23.529	N.2	1	C0P1001	0.000	
7	  C4	0.750	-10.400	-22.784	C.2	1	C0P1001	0.000	
8	  C6	-0.554	-10.489	-23.181	C.2	1	C0P1001	0.000	
9	  C7	-0.813	-11.038	-24.415	C.2	1	C0P1001	0.000	
10	  N8	0.186	-11.467	-25.200	N.2	1	C0P1001	0.000	
11	  C9	-2.207	-11.198	-24.910	C.2	1	C0P1001	0.000	
12	 C10	-2.974	-10.042	-25.097	C.2	1	C0P1001	0.000	
13	 C11	-4.298	-10.121	-25.527	C.2	1	C0P1001	0.000	
14	 O12	-5.094	-9.033	-25.754	O.3	1	C0P1001	0.000	
15	 C13	-4.553	-7.732	-25.435	C.3	1	C0P1001	0.000	
16	 C14	-5.570	-6.699	-25.836	C.3	1	C0P1001	0.000	
17	 N15	-6.809	-6.733	-24.981	N.3	1	C0P1001	0.000	
18	 C17	-6.478	-6.762	-23.520	C.3	1	C0P1001	0.000	
19	 C18	-7.760	-6.805	-22.702	C.3	1	C0P1001	0.000	
20	 O19	-8.593	-7.924	-23.066	O.3	1	C0P1001	0.000	
21	 C20	-8.941	-7.861	-24.458	C.3	1	C0P1001	0.000	
22	 C21	-7.704	-7.883	-25.340	C.3	1	C0P1001	0.000	
23	 C22	-4.900	-11.386	-25.715	C.2	1	C0P1001	0.000	
24	 C24	-4.168	-12.541	-25.498	C.2	1	C0P1001	0.000	
25	 C25	-2.840	-12.458	-25.088	C.2	1	C0P1001	0.000	
@<TRIPOS>BOND
1 4 5 1
2 5 6 ar
3 5 10 ar
4 6 7 ar
5 3 7 1
6 7 8 ar
7 8 9 ar
8 9 10 ar
9 9 11 1
10 11 12 ar
11 11 25 ar
12 12 13 ar
13 13 14 1
14 13 23 ar
15 14 15 1
16 15 16 1
17 16 17 1
18 17 18 1
19 17 22 1
20 18 19 1
21 19 20 1
22 20 21 1
23 21 22 1
24 1 23 1
25 23 24 ar
26 24 25 ar
27 2 25 1
@<TRIPOS>SUBSTRUCTURE
1	C0P1001	1	GROUP	1 A	C0P
