# created with PyMOL 3.1.3.1
@<TRIPOS>MOLECULE
3WHA_B
28 31 1                 
SMALL
USER_CHARGES
@<TRIPOS>ATOM
1	 CL1	-1.928	-13.736	-24.918	Cl	1	WHA301	0.000	
2	  C1	-6.409	-11.638	-26.257	C.3	1	WHA301	0.000	
3	  O2	-6.940	-10.501	-27.006	O.3	1	WHA301	0.000	
4	  C3	-6.821	-9.339	-26.179	C.3	1	WHA301	0.000	
5	  C4	-5.498	-9.061	-25.714	C.2	1	WHA301	0.000	
6	  C5	-5.065	-7.755	-25.479	C.2	1	WHA301	0.000	
7	  C6	-3.735	-7.536	-25.069	C.2	1	WHA301	0.000	
8	  C7	-2.864	-8.611	-24.874	C.2	1	WHA301	0.000	
9	  C8	-3.278	-9.929	-25.127	C.2	1	WHA301	0.000	
10	  C9	-4.621	-10.149	-25.541	C.2	1	WHA301	0.000	
11	 C10	-5.062	-11.454	-25.826	C.2	1	WHA301	0.000	
12	 C11	-4.183	-12.506	-25.669	C.2	1	WHA301	0.000	
13	 C12	-2.867	-12.311	-25.219	C.2	1	WHA301	0.000	
14	 C14	-2.388	-11.020	-24.933	C.2	1	WHA301	0.000	
15	 C15	-1.054	-10.849	-24.462	C.2	1	WHA301	0.000	
16	 N16	-0.842	-10.297	-23.251	N.2	1	WHA301	0.000	
17	 N17	0.006	-11.270	-25.214	N.2	1	WHA301	0.000	
18	 C18	1.240	-11.149	-24.703	C.2	1	WHA301	0.000	
19	 N19	2.256	-11.603	-25.413	N.pl3	1	WHA301	0.000	
20	 N22	1.460	-10.612	-23.499	N.2	1	WHA301	0.000	
21	 C23	0.416	-10.172	-22.795	C.2	1	WHA301	0.000	
22	 S24	0.738	-9.488	-21.252	S.3	1	WHA301	0.000	
23	 C25	-0.855	-8.697	-20.807	C.3	1	WHA301	0.000	
24	 C26	-1.076	-7.420	-21.601	C.3	1	WHA301	0.000	
25	 C27	-0.033	-6.369	-21.230	C.3	1	WHA301	0.000	
26	 C28	-0.237	-5.045	-21.930	C.2	1	WHA301	0.000	
27	 O29	-0.642	-4.069	-21.284	O.2	1	WHA301	0.000	
28	 N30	0.105	-5.015	-23.219	N.pl3	1	WHA301	0.000	
@<TRIPOS>BOND
1 2 3 1
2 3 4 1
3 4 5 1
4 5 6 ar
5 5 10 ar
6 6 7 ar
7 7 8 ar
8 8 9 ar
9 9 10 ar
10 10 11 ar
11 2 11 1
12 11 12 ar
13 12 13 ar
14 1 13 1
15 9 14 ar
16 13 14 ar
17 14 15 1
18 15 16 ar
19 15 17 ar
20 16 21 ar
21 17 18 ar
22 18 19 1
23 18 20 ar
24 20 21 ar
25 21 22 1
26 22 23 1
27 23 24 1
28 24 25 1
29 25 26 1
30 26 27 2
31 26 28 1
@<TRIPOS>SUBSTRUCTURE
1	WHA301	1	GROUP	1 B	WHA
