# created with PyMOL 3.1.3.1
@<TRIPOS>MOLECULE
1UYK_A
25 28 1                 
SMALL
USER_CHARGES
@<TRIPOS>ATOM
1	  C1	-4.007	-11.959	-25.786	C.2	1	PUX1224	0.000	
2	  N1	-0.621	-11.018	-25.562	N.2	1	PUX1224	0.000	
3	  O1	-6.166	-15.015	-24.230	O.2	1	PUX1224	0.000	
4	  C2	-5.390	-11.820	-25.827	C.2	1	PUX1224	0.000	
5	  N2	-1.961	-9.898	-24.077	N.2	1	PUX1224	0.000	
6	  C3	-6.285	-12.826	-25.318	C.2	1	PUX1224	0.000	
7	  N3	1.852	-10.318	-22.921	N.2	1	PUX1224	0.000	
8	  O3	-4.030	-15.288	-24.140	O.2	1	PUX1224	0.000	
9	  C4	-5.636	-13.934	-24.802	C.2	1	PUX1224	0.000	
10	  N4	-0.185	-9.506	-22.377	N.2	1	PUX1224	0.000	
11	  C5	-4.279	-14.065	-24.737	C.2	1	PUX1224	0.000	
12	  N5	2.332	-11.571	-24.933	N.pl3	1	PUX1224	0.000	
13	  C6	-3.400	-13.087	-25.214	C.2	1	PUX1224	0.000	
14	  C7	-5.212	-15.906	-23.679	C.2	1	PUX1224	0.000	
15	  C9	-3.169	-10.807	-26.326	C.3	1	PUX1224	0.000	
16	 C10	-1.938	-10.568	-25.348	C.2	1	PUX1224	0.000	
17	 C11	0.128	-10.689	-24.486	C.2	1	PUX1224	0.000	
18	 C12	-0.693	-10.001	-23.571	C.2	1	PUX1224	0.000	
19	 C13	1.446	-10.867	-24.134	C.2	1	PUX1224	0.000	
20	 C14	1.105	-9.633	-22.011	C.2	1	PUX1224	0.000	
21	 C15	-3.090	-9.242	-23.402	C.3	1	PUX1224	0.000	
22	 C16	-3.262	-7.722	-23.555	C.3	1	PUX1224	0.000	
23	 C17	-3.883	-7.164	-24.853	C.3	1	PUX1224	0.000	
24	 C18	-5.265	-7.699	-25.213	C.3	1	PUX1224	0.000	
25	   F	1.960	-9.314	-20.617	 F	1	PUX1224	0.000	
@<TRIPOS>BOND
1 1 4 ar
2 1 13 ar
3 2 16 ar
4 3 14 ar
5 4 6 ar
6 5 16 ar
7 5 18 ar
8 6 9 ar
9 7 19 ar
10 8 14 ar
11 3 9 ar
12 10 20 ar
13 8 11 ar
14 9 11 ar
15 11 13 ar
16 1 15 1
17 15 16 1
18 2 17 ar
19 17 19 ar
20 10 18 ar
21 17 18 ar
22 12 19 1
23 7 20 ar
24 20 25 1
25 5 21 1
26 21 22 1
27 22 23 1
28 23 24 1
@<TRIPOS>SUBSTRUCTURE
1	PUX1224	1	GROUP	1 A	PUX
