# created with PyMOL 3.1.3.1
@<TRIPOS>MOLECULE
4NH7_A
51 51 4                 
SMALL
USER_CHARGES
@<TRIPOS>ATOM
1	  C1	-0.501	-12.311	-25.465	C.2	1	E0G301	0.000	
2	  N1	2.339	-11.936	-25.321	N.pl3	1	E0G301	0.000	
3	  O1	-8.455	-12.629	-25.116	O.2	1	E0G301	0.000	
4	  C2	-1.853	-12.342	-25.737	C.2	1	E0G301	0.000	
5	  N2	-0.208	-9.108	-23.629	N.pl3	1	E0G301	0.000	
6	  O2	1.961	-10.831	-23.390	O.2	1	E0G301	0.000	
7	  C3	-2.673	-11.316	-25.290	C.2	1	E0G301	0.000	
8	  N3	-4.087	-11.425	-25.414	N.2	1	E0G301	0.000	
9	  O3	-1.782	-4.504	-20.741	O.3	1	E0G301	0.000	
10	  C4	-2.129	-10.227	-24.607	C.2	1	E0G301	0.000	
11	  N4	-4.838	-10.342	-25.873	N.2	1	E0G301	0.000	
12	  C5	-0.757	-10.185	-24.328	C.2	1	E0G301	0.000	
13	  C6	0.070	-11.252	-24.752	C.2	1	E0G301	0.000	
14	  C7	1.537	-11.317	-24.445	C.2	1	E0G301	0.000	
15	  C8	-0.871	-7.913	-23.120	C.3	1	E0G301	0.000	
16	  C9	0.115	-6.756	-23.066	C.3	1	E0G301	0.000	
17	 C10	-0.533	-5.487	-22.528	C.3	1	E0G301	0.000	
18	 C11	-1.113	-5.713	-21.144	C.3	1	E0G301	0.000	
19	 C12	-2.094	-6.878	-21.129	C.3	1	E0G301	0.000	
20	 C13	-1.492	-8.163	-21.747	C.3	1	E0G301	0.000	
21	 C14	-6.091	-10.759	-25.796	C.2	1	E0G301	0.000	
22	 C15	-6.178	-12.091	-25.314	C.2	1	E0G301	0.000	
23	 C16	-4.876	-12.477	-25.069	C.2	1	E0G301	0.000	
24	 C17	-4.508	-13.802	-24.473	C.3	1	E0G301	0.000	
25	 C18	-5.647	-14.482	-23.703	C.3	1	E0G301	0.000	
26	 C19	-6.927	-14.393	-24.552	C.3	1	E0G301	0.000	
27	 C20	-7.284	-12.994	-25.019	C.2	1	E0G301	0.000	
28	 C21	-5.862	-13.788	-22.355	C.3	1	E0G301	0.000	
29	 C22	-5.281	-15.938	-23.447	C.3	1	E0G301	0.000	
30	 C23	-7.188	-9.819	-26.183	C.3	1	E0G301	0.000	
31	  F1	-6.732	-8.610	-26.493	 F	1	E0G301	0.000	
32	  F2	-7.847	-10.227	-27.214	 F	1	E0G301	0.000	
33	  F3	-8.082	-9.704	-25.246	 F	1	E0G301	0.000	
34	  C1	-5.706	-4.085	-22.952	C.3	2	GOL302	0.000	
35	  O1	-6.599	-4.915	-22.271	O.3	2	GOL302	0.000	
36	  C2	-4.799	-3.392	-21.964	C.3	2	GOL302	0.000	
37	  O2	-3.593	-3.050	-22.638	O.3	2	GOL302	0.000	
38	  C3	-5.490	-2.150	-21.443	C.3	2	GOL302	0.000	
39	  O3	-4.608	-1.056	-21.230	O.3	2	GOL302	0.000	
40	  C1	3.879	3.835	-22.602	C.3	3	GOL303	0.000	
41	  O1	3.827	4.173	-23.975	O.3	3	GOL303	0.000	
42	  C2	2.908	2.725	-22.262	C.3	3	GOL303	0.000	
43	  O2	1.738	2.815	-23.071	O.3	3	GOL303	0.000	
44	  C3	3.546	1.367	-22.440	C.3	3	GOL303	0.000	
45	  O3	2.653	0.346	-22.026	O.3	3	GOL303	0.000	
46	  C1	-3.973	-6.508	-25.342	C.3	4	GOL304	0.000	
47	  O1	-3.379	-5.711	-24.320	O.3	4	GOL304	0.000	
48	  C2	-3.333	-6.226	-26.685	C.3	4	GOL304	0.000	
49	  O2	-3.754	-4.953	-27.177	O.3	4	GOL304	0.000	
50	  C3	-1.824	-6.284	-26.622	C.3	4	GOL304	0.000	
51	  O3	-1.254	-6.364	-27.906	O.3	4	GOL304	0.000	
@<TRIPOS>BOND
1 2 14 1
2 3 27 2
3 1 4 ar
4 4 7 ar
5 6 14 2
6 7 10 ar
7 7 8 1
8 8 11 ar
9 8 23 ar
10 11 21 ar
11 5 12 1
12 10 12 ar
13 12 13 ar
14 1 13 ar
15 13 14 1
16 5 15 1
17 15 16 1
18 15 20 1
19 16 17 1
20 17 18 1
21 9 18 1
22 18 19 1
23 19 20 1
24 21 22 ar
25 21 30 1
26 22 23 ar
27 22 27 1
28 23 24 1
29 24 25 1
30 25 29 1
31 25 26 1
32 26 27 1
33 25 28 1
34 30 31 1
35 30 32 1
36 30 33 1
37 34 35 1
38 34 36 1
39 36 37 1
40 36 38 1
41 38 39 1
42 40 41 1
43 40 42 1
44 42 43 1
45 42 44 1
46 44 45 1
47 46 47 1
48 46 48 1
49 48 49 1
50 48 50 1
51 50 51 1
@<TRIPOS>SUBSTRUCTURE
1	E0G301	1	GROUP	1 A	E0G
2	GOL302	34	GROUP	1 A	GOL
3	GOL303	40	GROUP	1 A	GOL
4	GOL304	46	GROUP	1 A	GOL
