# created with PyMOL 3.1.3.1
@<TRIPOS>MOLECULE
4AWO_AB
74 79 2                 
SMALL
USER_CHARGES
@<TRIPOS>ATOM
1	  C1	-0.554	6.916	-42.004	C.3	1	99B1225	0.000	
2	  N1	-0.127	8.167	-41.297	N.pl3	1	99B1225	0.000	
3	  O1	-5.249	9.629	-40.679	O.2	1	99B1225	0.000	
4	  C2	-0.578	7.015	-43.547	C.3	1	99B1225	0.000	
5	  N2	-4.906	10.964	-42.482	N.pl3	1	99B1225	0.000	
6	  O2	-14.338	11.371	-44.782	O.2	1	99B1225	0.000	
7	  C3	0.643	7.685	-44.143	C.3	1	99B1225	0.000	
8	  N3	-8.310	12.777	-43.652	N.pl3	1	99B1225	0.000	
9	  O3	1.865	10.036	-41.976	O.2	1	99B1225	0.000	
10	  C4	0.389	5.753	-41.665	C.3	1	99B1225	0.000	
11	  N4	-10.587	12.198	-43.381	N.2	1	99B1225	0.000	
12	  C5	-0.909	9.302	-41.223	C.2	1	99B1225	0.000	
13	  N5	1.875	11.498	-40.264	N.pl3	1	99B1225	0.000	
14	  C6	-2.291	9.195	-41.273	C.2	1	99B1225	0.000	
15	  C7	-3.017	10.390	-41.206	C.2	1	99B1225	0.000	
16	  C8	-4.518	10.317	-41.355	C.2	1	99B1225	0.000	
17	  C9	-6.306	11.147	-42.927	C.3	1	99B1225	0.000	
18	 C10	-7.530	11.194	-41.977	C.3	1	99B1225	0.000	
19	 C11	-7.922	12.711	-42.209	C.3	1	99B1225	0.000	
20	 C12	-7.088	12.770	-44.439	C.3	1	99B1225	0.000	
21	 C13	-6.594	11.237	-44.421	C.3	1	99B1225	0.000	
22	 C14	-6.126	13.747	-43.684	C.3	1	99B1225	0.000	
23	 C15	-6.695	13.707	-42.191	C.3	1	99B1225	0.000	
24	 C16	-9.588	12.542	-44.210	C.2	1	99B1225	0.000	
25	 C17	-11.815	11.925	-43.800	C.2	1	99B1225	0.000	
26	 C18	-12.031	11.929	-45.176	C.2	1	99B1225	0.000	
27	 C19	-13.441	11.569	-45.631	C.2	1	99B1225	0.000	
28	 C20	-13.605	11.340	-47.154	C.3	1	99B1225	0.000	
29	 C21	-14.257	10.009	-47.477	C.3	1	99B1225	0.000	
30	 C22	-15.043	11.313	-47.740	C.3	1	99B1225	0.000	
31	 C23	-9.710	12.533	-45.632	C.2	1	99B1225	0.000	
32	 C24	-11.004	12.218	-46.097	C.2	1	99B1225	0.000	
33	 C25	-0.273	10.538	-41.068	C.2	1	99B1225	0.000	
34	 C26	1.255	10.645	-41.080	C.2	1	99B1225	0.000	
35	 C27	-0.998	11.732	-41.024	C.2	1	99B1225	0.000	
36	 C28	-2.368	11.643	-41.120	C.2	1	99B1225	0.000	
37	 C29	-3.144	12.975	-41.074	C.3	1	99B1225	0.000	
38	  C1	-0.971	-7.779	-24.091	C.3	2	99B1225	0.000	
39	  N1	-0.142	-8.916	-24.616	N.pl3	2	99B1225	0.000	
40	  O1	-4.808	-11.156	-26.015	O.2	2	99B1225	0.000	
41	  C2	-1.386	-8.010	-22.592	C.3	2	99B1225	0.000	
42	  N2	-4.577	-12.519	-24.243	N.pl3	2	99B1225	0.000	
43	  O2	-13.851	-14.673	-23.351	O.2	2	99B1225	0.000	
44	  C3	-0.140	-8.229	-21.702	C.3	2	99B1225	0.000	
45	  N3	-7.596	-15.017	-23.532	N.pl3	2	99B1225	0.000	
46	  O3	2.029	-10.370	-23.713	O.2	2	99B1225	0.000	
47	  C4	-0.203	-6.458	-24.171	C.3	2	99B1225	0.000	
48	  N4	-9.811	-14.844	-24.129	N.2	2	99B1225	0.000	
49	  C5	-0.632	-10.182	-24.788	C.2	2	99B1225	0.000	
50	  N5	2.569	-11.874	-25.419	N.pl3	2	99B1225	0.000	
51	  C6	-2.002	-10.382	-24.962	C.2	2	99B1225	0.000	
52	  C7	-2.526	-11.667	-25.142	C.2	2	99B1225	0.000	
53	  C8	-4.078	-11.779	-25.256	C.2	2	99B1225	0.000	
54	  C9	-5.969	-12.924	-23.976	C.3	2	99B1225	0.000	
55	 C10	-6.396	-13.228	-22.511	C.3	2	99B1225	0.000	
56	 C11	-6.537	-14.812	-22.543	C.3	2	99B1225	0.000	
57	 C12	-7.020	-14.826	-24.898	C.3	2	99B1225	0.000	
58	 C13	-6.901	-13.276	-25.146	C.3	2	99B1225	0.000	
59	 C14	-5.596	-15.525	-24.714	C.3	2	99B1225	0.000	
60	 C15	-5.343	-15.541	-23.158	C.3	2	99B1225	0.000	
61	 C16	-8.912	-15.007	-23.173	C.2	2	99B1225	0.000	
62	 C17	-11.118	-14.809	-23.906	C.2	2	99B1225	0.000	
63	 C18	-11.591	-14.802	-22.583	C.2	2	99B1225	0.000	
64	 C19	-13.103	-14.723	-22.366	C.2	2	99B1225	0.000	
65	 C20	-13.609	-14.696	-20.901	C.3	2	99B1225	0.000	
66	 C21	-15.093	-14.861	-20.668	C.3	2	99B1225	0.000	
67	 C22	-14.459	-13.474	-20.582	C.3	2	99B1225	0.000	
68	 C23	-9.322	-14.998	-21.822	C.2	2	99B1225	0.000	
69	 C24	-10.678	-14.911	-21.559	C.2	2	99B1225	0.000	
70	 C25	0.213	-11.291	-24.908	C.2	2	99B1225	0.000	
71	 C26	1.733	-11.108	-24.667	C.2	2	99B1225	0.000	
72	 C27	-0.280	-12.574	-25.055	C.2	2	99B1225	0.000	
73	 C28	-1.668	-12.775	-25.222	C.2	2	99B1225	0.000	
74	 C29	-2.247	-14.185	-25.403	C.3	2	99B1225	0.000	
@<TRIPOS>BOND
1 1 2 1
2 1 4 1
3 1 10 1
4 2 12 1
5 3 16 2
6 4 7 1
7 5 16 1
8 5 17 1
9 6 27 2
10 8 19 1
11 8 20 1
12 8 24 1
13 9 34 2
14 11 24 ar
15 11 25 ar
16 12 14 ar
17 12 33 ar
18 13 34 1
19 14 15 ar
20 15 16 1
21 15 36 ar
22 17 18 1
23 17 21 1
24 18 19 1
25 19 23 1
26 20 22 1
27 24 31 ar
28 25 26 ar
29 26 27 1
30 26 32 ar
31 27 28 1
32 28 29 1
33 28 30 1
34 29 30 1
35 31 32 ar
36 33 34 1
37 33 35 ar
38 35 36 ar
39 36 37 1
40 38 39 1
41 38 41 1
42 38 47 1
43 39 49 1
44 40 53 2
45 41 44 1
46 42 53 1
47 42 54 1
48 43 64 2
49 45 56 1
50 45 57 1
51 45 61 1
52 46 71 2
53 48 61 ar
54 48 62 ar
55 49 51 ar
56 49 70 ar
57 50 71 1
58 51 52 ar
59 52 53 1
60 52 73 ar
61 54 55 1
62 54 58 1
63 55 56 1
64 56 60 1
65 57 58 1
66 59 60 1
67 61 68 ar
68 62 63 ar
69 63 64 1
70 63 69 ar
71 64 65 1
72 65 66 1
73 65 67 1
74 66 67 1
75 68 69 ar
76 70 71 1
77 70 72 ar
78 72 73 ar
79 73 74 1
@<TRIPOS>SUBSTRUCTURE
1	99B1225	1	GROUP	1 A	99B
2	99B1225	38	GROUP	1 B	99B
