# created with PyMOL 3.1.3.1
@<TRIPOS>MOLECULE
1UYD_A
28 30 1                 
SMALL
USER_CHARGES
@<TRIPOS>ATOM
1	  CL	-2.292	-14.032	-24.983	Cl	1	PU81224	0.000	
2	  C1	-4.005	-11.980	-25.718	C.2	1	PU81224	0.000	
3	  N1	-0.476	-11.359	-25.723	N.2	1	PU81224	0.000	
4	  O1	-7.311	-13.875	-23.981	O.3	1	PU81224	0.000	
5	  C2	-5.257	-11.400	-25.767	C.2	1	PU81224	0.000	
6	  N2	-1.771	-10.264	-24.344	N.2	1	PU81224	0.000	
7	  O2	-7.644	-11.371	-25.230	O.3	1	PU81224	0.000	
8	  C3	-6.363	-12.008	-25.204	C.2	1	PU81224	0.000	
9	  N3	2.093	-10.598	-23.314	N.2	1	PU81224	0.000	
10	  O3	-4.980	-15.130	-23.878	O.3	1	PU81224	0.000	
11	  C4	-6.207	-13.223	-24.580	C.2	1	PU81224	0.000	
12	  N4	-0.038	-9.751	-22.693	N.2	1	PU81224	0.000	
13	  C5	-4.966	-13.840	-24.502	C.2	1	PU81224	0.000	
14	  N5	2.539	-11.804	-25.355	N.pl3	1	PU81224	0.000	
15	  C6	-3.842	-13.226	-25.067	C.2	1	PU81224	0.000	
16	  C7	-7.829	-15.072	-24.587	C.3	1	PU81224	0.000	
17	  C8	-8.044	-10.489	-26.295	C.3	1	PU81224	0.000	
18	  C9	-2.891	-11.188	-26.389	C.3	1	PU81224	0.000	
19	 C10	-1.710	-10.926	-25.495	C.2	1	PU81224	0.000	
20	 C11	0.276	-10.937	-24.729	C.2	1	PU81224	0.000	
21	 C12	-0.541	-10.262	-23.835	C.2	1	PU81224	0.000	
22	 C13	1.627	-11.095	-24.450	C.2	1	PU81224	0.000	
23	 C14	1.278	-9.937	-22.463	C.2	1	PU81224	0.000	
24	 C15	-2.976	-9.655	-23.768	C.3	1	PU81224	0.000	
25	 C16	-2.854	-8.150	-23.790	C.3	1	PU81224	0.000	
26	 C17	-3.597	-7.307	-24.824	C.3	1	PU81224	0.000	
27	 C18	-4.612	-7.959	-25.748	C.3	1	PU81224	0.000	
28	 C19	-4.254	-15.551	-22.748	C.3	1	PU81224	0.000	
@<TRIPOS>BOND
1 2 18 1
2 3 20 ar
3 4 16 1
4 2 5 ar
5 6 24 1
6 7 17 1
7 5 8 ar
8 7 8 1
9 10 13 1
10 4 11 1
11 8 11 ar
12 12 23 ar
13 11 13 ar
14 13 15 ar
15 1 15 1
16 2 15 ar
17 18 19 1
18 3 19 ar
19 6 19 ar
20 20 21 ar
21 20 22 ar
22 6 21 ar
23 12 21 ar
24 9 22 ar
25 14 22 1
26 9 23 ar
27 24 25 1
28 25 26 1
29 26 27 1
30 10 28 1
@<TRIPOS>SUBSTRUCTURE
1	PU81224	1	GROUP	1 A	PU8
