# created with PyMOL 3.1.3.1
@<TRIPOS>MOLECULE
3D0B_A
28 31 1                 
SMALL
USER_CHARGES
@<TRIPOS>ATOM
1	  C1	-4.864	-11.440	-25.686	C.2	1	SNX233	0.000	
2	  C2	-6.180	-12.112	-25.451	C.2	1	SNX233	0.000	
3	  C3	-7.387	-11.548	-25.853	C.2	1	SNX233	0.000	
4	  C4	-7.309	-10.307	-26.486	C.2	1	SNX233	0.000	
5	  C5	-6.090	-9.659	-26.716	C.2	1	SNX233	0.000	
6	  C6	-4.853	-10.203	-26.328	C.2	1	SNX233	0.000	
7	  N7	-3.921	-12.288	-25.212	N.2	1	SNX233	0.000	
8	  C8	-4.370	-13.413	-24.613	C.2	1	SNX233	0.000	
9	  C9	-5.822	-13.364	-24.765	C.2	1	SNX233	0.000	
10	 C10	-6.727	-14.436	-24.285	C.2	1	SNX233	0.000	
11	 C11	-6.015	-15.721	-23.932	C.3	1	SNX233	0.000	
12	 C12	-4.672	-15.487	-23.242	C.3	1	SNX233	0.000	
13	 C13	-3.661	-14.578	-23.960	C.3	1	SNX233	0.000	
14	 O14	-7.931	-14.299	-24.163	O.2	1	SNX233	0.000	
15	 C15	-2.603	-12.044	-25.144	C.2	1	SNX233	0.000	
16	 C16	-1.614	-12.843	-25.751	C.2	1	SNX233	0.000	
17	 C17	-0.244	-12.607	-25.600	C.2	1	SNX233	0.000	
18	 C18	0.191	-11.533	-24.828	C.2	1	SNX233	0.000	
19	 C19	-0.805	-10.674	-24.143	C.2	1	SNX233	0.000	
20	 C20	-2.155	-10.984	-24.344	C.2	1	SNX233	0.000	
21	 C21	1.658	-11.298	-24.624	C.2	1	SNX233	0.000	
22	 N22	2.542	-11.802	-25.486	N.pl3	1	SNX233	0.000	
23	 O23	1.999	-10.722	-23.599	O.2	1	SNX233	0.000	
24	 N24	-0.414	-9.619	-23.361	N.pl3	1	SNX233	0.000	
25	 C25	-1.378	-8.766	-22.667	C.3	1	SNX233	0.000	
26	 C26	-0.710	-7.708	-21.789	C.3	1	SNX233	0.000	
27	 O27	0.262	-7.007	-22.569	O.3	1	SNX233	0.000	
28	 C28	0.199	-5.589	-22.446	C.3	1	SNX233	0.000	
@<TRIPOS>BOND
1 1 2 ar
2 1 6 ar
3 2 3 ar
4 3 4 ar
5 4 5 ar
6 5 6 ar
7 1 7 ar
8 7 8 ar
9 8 9 ar
10 8 13 1
11 2 9 ar
12 9 10 1
13 10 14 2
14 10 11 1
15 11 12 1
16 12 13 1
17 7 15 1
18 15 16 ar
19 16 17 ar
20 17 18 ar
21 18 19 ar
22 19 20 ar
23 19 24 1
24 15 20 ar
25 18 21 1
26 21 22 1
27 21 23 2
28 24 25 1
29 25 26 1
30 26 27 1
31 27 28 1
@<TRIPOS>SUBSTRUCTURE
1	SNX233	1	GROUP	1 A	SNX
