# created with PyMOL 3.1.3.1
@<TRIPOS>MOLECULE
3B28_A
29 31 2                 
SMALL
USER_CHARGES
@<TRIPOS>ATOM
1	  C1	-6.018	-0.761	-27.390	C.3	1	GOL1	0.000	
2	  O1	-5.854	-1.252	-26.060	O.3	1	GOL1	0.000	
3	  C2	-7.447	-0.907	-27.864	C.3	1	GOL1	0.000	
4	  O2	-8.324	-0.224	-26.952	O.3	1	GOL1	0.000	
5	  C3	-7.833	-2.368	-27.959	C.3	1	GOL1	0.000	
6	  O3	-9.129	-2.526	-28.540	O.3	1	GOL1	0.000	
7	CL13	-1.823	-13.781	-25.017	Cl	2	B2X237	0.000	
8	  C1	-6.303	-11.743	-26.413	C.3	2	B2X237	0.000	
9	  O2	-6.791	-10.602	-27.214	O.3	2	B2X237	0.000	
10	  C3	-6.763	-9.467	-26.322	C.3	2	B2X237	0.000	
11	  C4	-5.457	-9.141	-25.800	C.2	2	B2X237	0.000	
12	  C5	-5.035	-7.822	-25.566	C.2	2	B2X237	0.000	
13	  C6	-3.715	-7.568	-25.140	C.2	2	B2X237	0.000	
14	  C7	-2.824	-8.627	-24.949	C.2	2	B2X237	0.000	
15	  C8	-3.220	-9.956	-25.178	C.2	2	B2X237	0.000	
16	  C9	-4.540	-10.202	-25.631	C.2	2	B2X237	0.000	
17	 C10	-4.969	-11.516	-25.907	C.2	2	B2X237	0.000	
18	 C11	-4.087	-12.577	-25.750	C.2	2	B2X237	0.000	
19	 C12	-2.797	-12.352	-25.288	C.2	2	B2X237	0.000	
20	 C14	-2.330	-11.057	-25.018	C.2	2	B2X237	0.000	
21	 C15	-0.990	-10.877	-24.539	C.2	2	B2X237	0.000	
22	 N16	-0.765	-10.291	-23.349	N.2	2	B2X237	0.000	
23	 N17	0.068	-11.321	-25.250	N.2	2	B2X237	0.000	
24	 C18	1.324	-11.203	-24.776	C.2	2	B2X237	0.000	
25	 N19	2.326	-11.680	-25.497	N.pl3	2	B2X237	0.000	
26	 N22	1.543	-10.642	-23.581	N.2	2	B2X237	0.000	
27	 C23	0.511	-10.153	-22.937	C.2	2	B2X237	0.000	
28	 S24	0.829	-9.450	-21.390	S.3	2	B2X237	0.000	
29	 C25	-0.684	-8.572	-21.012	C.3	2	B2X237	0.000	
@<TRIPOS>BOND
1 1 2 1
2 1 3 1
3 3 4 1
4 3 5 1
5 5 6 1
6 8 9 1
7 8 17 1
8 9 10 1
9 10 11 1
10 11 12 ar
11 11 16 ar
12 12 13 ar
13 13 14 ar
14 14 15 ar
15 15 16 ar
16 15 20 ar
17 16 17 ar
18 17 18 ar
19 18 19 ar
20 7 19 1
21 19 20 ar
22 20 21 1
23 21 22 ar
24 21 23 ar
25 22 27 ar
26 23 24 ar
27 24 25 1
28 24 26 ar
29 26 27 ar
30 27 28 1
31 28 29 1
@<TRIPOS>SUBSTRUCTURE
1	GOL1	1	GROUP	1 A	GOL
2	B2X237	7	GROUP	1 A	B2X
