# created with PyMOL 3.1.3.1
@<TRIPOS>MOLECULE
3R4O_B
33 36 1                 
SMALL
USER_CHARGES
@<TRIPOS>ATOM
1	CL32	-6.373	-11.376	-26.991	Cl	1	FU3901	0.000	
2	CL33	-1.959	-13.819	-24.967	Cl	1	FU3901	0.000	
3	  C1	-4.219	-10.017	-26.225	C.2	1	FU3901	0.000	
4	  C2	-4.095	-12.462	-25.961	C.2	1	FU3901	0.000	
5	  C3	-1.214	-5.883	-16.707	C.3	1	FU3901	0.000	
6	  C4	-1.434	-5.947	-18.235	C.3	1	FU3901	0.000	
7	  C5	-0.506	-7.246	-16.844	C.3	1	FU3901	0.000	
8	  C6	-1.692	-9.780	-22.439	C.2	1	FU3901	0.000	
9	  C7	0.547	-9.545	-21.510	C.2	1	FU3901	0.000	
10	  C8	-1.909	-6.357	-25.433	C.3	1	FU3901	0.000	
11	  C9	-1.413	-6.643	-24.015	C.3	1	FU3901	0.000	
12	 C10	-2.888	-7.433	-25.879	C.3	1	FU3901	0.000	
13	 C11	-4.793	-11.286	-26.352	C.2	1	FU3901	0.000	
14	 C12	-2.931	-9.884	-25.688	C.2	1	FU3901	0.000	
15	 C13	-2.782	-12.355	-25.418	C.2	1	FU3901	0.000	
16	 C14	-0.689	-10.324	-23.379	C.2	1	FU3901	0.000	
17	 C15	0.590	-10.209	-22.874	C.2	1	FU3901	0.000	
18	 C16	-2.176	-11.070	-25.260	C.2	1	FU3901	0.000	
19	 C17	-0.828	-10.914	-24.649	C.2	1	FU3901	0.000	
20	 C18	1.491	-11.208	-24.772	C.2	1	FU3901	0.000	
21	 C19	-1.423	-7.477	-18.058	C.3	1	FU3901	0.000	
22	 C20	-1.564	-8.631	-20.257	C.2	1	FU3901	0.000	
23	 C21	-0.366	-5.688	-23.560	C.3	1	FU3901	0.000	
24	 N22	2.589	-11.663	-25.495	N.pl3	1	FU3901	0.000	
25	 N23	1.703	-10.635	-23.533	N.2	1	FU3901	0.000	
26	 N24	0.258	-11.357	-25.351	N.2	1	FU3901	0.000	
27	 N25	-0.785	-8.184	-19.196	N.pl3	1	FU3901	0.000	
28	 N26	-0.904	-9.300	-21.309	N.2	1	FU3901	0.000	
29	 O27	-2.787	-8.442	-20.269	O.2	1	FU3901	0.000	
30	 O28	-2.289	-8.683	-25.515	O.3	1	FU3901	0.000	
31	 F29	-0.829	-4.431	-23.526	 F	1	FU3901	0.000	
32	 F30	0.034	-6.004	-22.325	 F	1	FU3901	0.000	
33	 F31	0.699	-5.718	-24.365	 F	1	FU3901	0.000	
@<TRIPOS>BOND
1 3 13 ar
2 3 14 ar
3 4 13 ar
4 4 15 ar
5 5 6 1
6 5 7 1
7 6 21 1
8 7 21 1
9 8 16 ar
10 8 28 ar
11 9 17 ar
12 9 28 ar
13 10 11 1
14 10 12 1
15 11 23 1
16 12 30 1
17 1 13 1
18 14 18 ar
19 14 30 1
20 2 15 1
21 15 18 ar
22 16 17 ar
23 16 19 ar
24 17 25 ar
25 18 19 1
26 19 26 ar
27 20 24 1
28 20 25 ar
29 20 26 ar
30 21 27 1
31 22 27 1
32 22 28 1
33 22 29 2
34 23 31 1
35 23 32 1
36 23 33 1
@<TRIPOS>SUBSTRUCTURE
1	FU3901	1	GROUP	1 B	FU3
