# created with PyMOL 3.1.3.1
@<TRIPOS>MOLECULE
2WI2_A
14 13 2                 
SMALL
USER_CHARGES
@<TRIPOS>ATOM
1	   O	1.105	-0.735	-31.301	O.3	1	DMS1225	0.000	
2	  C1	-1.007	-2.049	-29.977	C.3	1	DMS1225	0.000	
3	  C2	-1.217	-1.634	-32.673	C.3	1	DMS1225	0.000	
4	   S	-0.647	-0.779	-31.208	S.O	1	DMS1225	0.000	
5	  N1	0.098	-11.582	-25.426	N.2	2	ZZ31226	0.000	
6	  S1	0.479	-9.209	-21.747	S.3	2	ZZ31226	0.000	
7	  C2	1.316	-11.376	-24.880	C.2	2	ZZ31226	0.000	
8	  C3	-1.001	-11.060	-24.843	C.2	2	ZZ31226	0.000	
9	  N3	-0.884	-10.330	-23.714	N.2	2	ZZ31226	0.000	
10	  C4	0.332	-10.124	-23.166	C.2	2	ZZ31226	0.000	
11	  N4	1.433	-10.646	-23.749	N.2	2	ZZ31226	0.000	
12	  N5	2.420	-11.900	-25.464	N.pl3	2	ZZ31226	0.000	
13	  C6	-0.999	-8.285	-21.489	C.3	2	ZZ31226	0.000	
14	  C8	-2.359	-11.290	-25.454	C.3	2	ZZ31226	0.000	
@<TRIPOS>BOND
1 1 4 1
2 2 4 1
3 3 4 1
4 5 8 ar
5 6 13 1
6 5 7 ar
7 7 11 ar
8 8 9 ar
9 8 14 1
10 9 10 ar
11 6 10 1
12 10 11 ar
13 7 12 1
@<TRIPOS>SUBSTRUCTURE
1	DMS1225	1	GROUP	1 A	DMS
2	ZZ31226	5	GROUP	1 A	ZZ3
