# created with PyMOL 3.1.3.1
@<TRIPOS>MOLECULE
2YED_A
10 11 1                 
SMALL
USER_CHARGES
@<TRIPOS>ATOM
1	  N1	1.515	-10.442	-23.182	N.2	1	ADE1225	0.000	
2	  C2	0.533	-10.026	-22.373	C.2	1	ADE1225	0.000	
3	  N3	-0.755	-10.209	-22.674	N.2	1	ADE1225	0.000	
4	  C4	-1.068	-10.822	-23.809	C.2	1	ADE1225	0.000	
5	  C5	-0.086	-11.260	-24.656	C.2	1	ADE1225	0.000	
6	  C6	1.241	-11.062	-24.330	C.2	1	ADE1225	0.000	
7	  N6	2.318	-11.521	-25.219	N.pl3	1	ADE1225	0.000	
8	  N7	-0.671	-11.831	-25.702	N.pl3	1	ADE1225	0.000	
9	  C8	-1.992	-11.748	-25.507	C.2	1	ADE1225	0.000	
10	  N9	-2.241	-11.131	-24.346	N.2	1	ADE1225	0.000	
@<TRIPOS>BOND
1 1 2 ar
2 2 3 ar
3 3 4 ar
4 4 5 ar
5 5 6 ar
6 1 6 ar
7 6 7 1
8 5 8 ar
9 8 9 ar
10 4 10 ar
11 9 10 ar
@<TRIPOS>SUBSTRUCTURE
1	ADE1225	1	GROUP	1 A	ADE
