# created with PyMOL 3.1.3.1
@<TRIPOS>MOLECULE
2WI2_B
10 10 1                 
SMALL
USER_CHARGES
@<TRIPOS>ATOM
1	  N1	0.068	-11.403	-25.243	N.2	1	ZZ31225	0.000	
2	  S1	0.752	-9.437	-21.371	S.3	1	ZZ31225	0.000	
3	  C2	1.326	-11.255	-24.773	C.2	1	ZZ31225	0.000	
4	  C3	-0.979	-10.946	-24.524	C.2	1	ZZ31225	0.000	
5	  N3	-0.769	-10.342	-23.335	N.2	1	ZZ31225	0.000	
6	  C4	0.488	-10.195	-22.865	C.2	1	ZZ31225	0.000	
7	  N4	1.536	-10.651	-23.584	N.2	1	ZZ31225	0.000	
8	  N5	2.377	-11.713	-25.495	N.pl3	1	ZZ31225	0.000	
9	  C6	-0.433	-8.152	-21.148	C.3	1	ZZ31225	0.000	
10	  C8	-2.381	-11.111	-25.047	C.3	1	ZZ31225	0.000	
@<TRIPOS>BOND
1 1 4 ar
2 2 9 1
3 1 3 ar
4 3 7 ar
5 4 5 ar
6 4 10 1
7 5 6 ar
8 2 6 1
9 6 7 ar
10 3 8 1
@<TRIPOS>SUBSTRUCTURE
1	ZZ31225	1	GROUP	1 B	ZZ3
