# created with PyMOL 3.1.3.1
@<TRIPOS>MOLECULE
3R4O_A
33 36 1                 
SMALL
USER_CHARGES
@<TRIPOS>ATOM
1	CL32	-6.428	-11.324	-27.003	Cl	1	FU3901	0.000	
2	CL33	-2.108	-13.733	-24.746	Cl	1	FU3901	0.000	
3	  C1	-4.207	-9.951	-26.309	C.2	1	FU3901	0.000	
4	  C2	-4.183	-12.377	-25.860	C.2	1	FU3901	0.000	
5	  C3	-1.390	-5.933	-16.707	C.3	1	FU3901	0.000	
6	  C4	-1.533	-5.955	-18.234	C.3	1	FU3901	0.000	
7	  C5	-0.688	-7.302	-16.859	C.3	1	FU3901	0.000	
8	  C6	-1.775	-9.761	-22.448	C.2	1	FU3901	0.000	
9	  C7	0.442	-9.532	-21.454	C.2	1	FU3901	0.000	
10	  C8	-1.639	-6.403	-25.609	C.3	1	FU3901	0.000	
11	  C9	-1.571	-6.441	-24.072	C.3	1	FU3901	0.000	
12	 C10	-2.668	-7.407	-26.101	C.3	1	FU3901	0.000	
13	 C11	-4.837	-11.213	-26.348	C.2	1	FU3901	0.000	
14	 C12	-2.904	-9.836	-25.762	C.2	1	FU3901	0.000	
15	 C13	-2.875	-12.282	-25.312	C.2	1	FU3901	0.000	
16	 C14	-0.740	-10.298	-23.355	C.2	1	FU3901	0.000	
17	 C15	0.528	-10.183	-22.812	C.2	1	FU3901	0.000	
18	 C16	-2.212	-11.019	-25.242	C.2	1	FU3901	0.000	
19	 C17	-0.854	-10.878	-24.622	C.2	1	FU3901	0.000	
20	 C18	1.478	-11.164	-24.689	C.2	1	FU3901	0.000	
21	 C19	-1.584	-7.486	-18.082	C.3	1	FU3901	0.000	
22	 C20	-1.704	-8.620	-20.287	C.2	1	FU3901	0.000	
23	 C21	-0.388	-5.702	-23.526	C.3	1	FU3901	0.000	
24	 N22	2.598	-11.609	-25.387	N.pl3	1	FU3901	0.000	
25	 N23	1.657	-10.597	-23.436	N.2	1	FU3901	0.000	
26	 N24	0.249	-11.317	-25.303	N.2	1	FU3901	0.000	
27	 N25	-0.940	-8.197	-19.202	N.pl3	1	FU3901	0.000	
28	 N26	-1.022	-9.292	-21.298	N.2	1	FU3901	0.000	
29	 O27	-2.924	-8.414	-20.350	O.2	1	FU3901	0.000	
30	 O28	-2.181	-8.666	-25.656	O.3	1	FU3901	0.000	
31	 F29	-0.437	-4.411	-23.883	 F	1	FU3901	0.000	
32	 F30	-0.374	-5.761	-22.183	 F	1	FU3901	0.000	
33	 F31	0.770	-6.231	-23.959	 F	1	FU3901	0.000	
@<TRIPOS>BOND
1 3 13 ar
2 3 14 ar
3 4 13 ar
4 4 15 ar
5 5 6 1
6 5 7 1
7 6 21 1
8 7 21 1
9 8 16 ar
10 8 28 ar
11 9 17 ar
12 9 28 ar
13 10 11 1
14 10 12 1
15 11 23 1
16 12 30 1
17 1 13 1
18 14 18 ar
19 14 30 1
20 2 15 1
21 15 18 ar
22 16 17 ar
23 16 19 ar
24 17 25 ar
25 18 19 1
26 19 26 ar
27 20 24 1
28 20 25 ar
29 20 26 ar
30 21 27 1
31 22 27 1
32 22 28 1
33 22 29 2
34 23 31 1
35 23 32 1
36 23 33 1
@<TRIPOS>SUBSTRUCTURE
1	FU3901	1	GROUP	1 A	FU3
