# created with PyMOL 3.1.3.1
@<TRIPOS>MOLECULE
2JJC_A
16 15 2                 
SMALL
USER_CHARGES
@<TRIPOS>ATOM
1	   O	17.516	-15.050	-27.299	O.3	1	DMS1224	0.000	
2	  C1	18.633	-14.447	-24.634	C.3	1	DMS1224	0.000	
3	  C2	17.021	-16.733	-24.899	C.3	1	DMS1224	0.000	
4	   S	17.155	-15.037	-25.525	S.O	1	DMS1224	0.000	
5	  C1	1.363	-11.106	-24.587	C.2	2	LGA1225	0.000	
6	  N1	0.131	-11.267	-25.129	N.2	2	LGA1225	0.000	
7	  N2	2.404	-11.503	-25.312	N.pl3	2	LGA1225	0.000	
8	  C3	0.567	-10.166	-22.662	C.2	2	LGA1225	0.000	
9	  C4	-0.895	-10.853	-24.381	C.2	2	LGA1225	0.000	
10	  C5	-0.715	-10.292	-23.141	C.2	2	LGA1225	0.000	
11	  N7	1.625	-10.576	-23.359	N.2	2	LGA1225	0.000	
12	  H3	0.746	-9.736	-21.681	 H	2	LGA1225	0.000	
13	  H4	-1.891	-10.966	-24.790	 H	2	LGA1225	0.000	
14	  H5	-1.560	-9.967	-22.551	 H	2	LGA1225	0.000	
15	H2N1	2.254	-11.914	-26.213	 H	2	LGA1225	0.000	
16	H2N2	3.317	-11.371	-24.927	 H	2	LGA1225	0.000	
@<TRIPOS>BOND
1 1 4 1
2 2 4 1
3 3 4 1
4 5 6 ar
5 5 11 ar
6 6 9 ar
7 5 7 1
8 7 15 1
9 7 16 1
10 8 11 ar
11 8 12 1
12 9 10 ar
13 9 13 1
14 8 10 ar
15 10 14 1
@<TRIPOS>SUBSTRUCTURE
1	DMS1224	1	GROUP	1 A	DMS
2	LGA1225	5	GROUP	1 A	LGA
