# created with PyMOL 3.1.3.1
@<TRIPOS>MOLECULE
1UYE_A
29 31 1                 
SMALL
USER_CHARGES
@<TRIPOS>ATOM
1	  CL	-2.111	-14.077	-25.079	Cl	1	PU91224	0.000	
2	  C1	-0.578	-10.281	-23.860	C.2	1	PU91224	0.000	
3	  N1	-0.201	-9.689	-22.726	N.2	1	PU91224	0.000	
4	  O1	-7.692	-11.954	-25.001	O.3	1	PU91224	0.000	
5	  C2	0.249	-10.927	-24.724	C.2	1	PU91224	0.000	
6	  N2	1.972	-10.444	-23.253	N.2	1	PU91224	0.000	
7	  O2	-7.070	-14.374	-23.787	O.3	1	PU91224	0.000	
8	  C3	1.577	-10.994	-24.398	C.2	1	PU91224	0.000	
9	  N3	-0.503	-11.371	-25.729	N.2	1	PU91224	0.000	
10	  O3	-4.814	-15.334	-23.802	O.3	1	PU91224	0.000	
11	  C4	1.110	-9.803	-22.444	C.2	1	PU91224	0.000	
12	  N4	-1.813	-10.279	-24.312	N.2	1	PU91224	0.000	
13	  C5	-1.756	-10.964	-25.491	C.2	1	PU91224	0.000	
14	  N5	2.547	-11.669	-25.225	N.pl3	1	PU91224	0.000	
15	  C6	-2.946	-11.287	-26.386	C.3	1	PU91224	0.000	
16	  C7	-2.980	-9.661	-23.682	C.3	1	PU91224	0.000	
17	  C8	-2.980	-8.146	-23.915	C.3	1	PU91224	0.000	
18	  C9	-3.106	-7.810	-25.394	C.3	1	PU91224	0.000	
19	 C10	-4.519	-7.984	-25.968	C.3	1	PU91224	0.000	
20	 C11	-5.641	-8.114	-26.325	C.3	1	PU91224	0.000	
21	 C12	-4.015	-12.129	-25.671	C.2	1	PU91224	0.000	
22	 C13	-3.735	-13.374	-25.055	C.2	1	PU91224	0.000	
23	 C14	-5.342	-11.645	-25.669	C.2	1	PU91224	0.000	
24	 C15	-4.800	-14.067	-24.453	C.2	1	PU91224	0.000	
25	 C16	-6.374	-12.369	-25.055	C.2	1	PU91224	0.000	
26	 C17	-6.083	-13.571	-24.452	C.2	1	PU91224	0.000	
27	 C18	-8.191	-10.843	-25.780	C.3	1	PU91224	0.000	
28	 C19	-8.170	-14.976	-24.527	C.3	1	PU91224	0.000	
29	 C20	-4.972	-16.629	-23.599	C.3	1	PU91224	0.000	
@<TRIPOS>BOND
1 1 22 1
2 2 3 ar
3 2 12 ar
4 3 11 ar
5 4 27 1
6 2 5 ar
7 5 8 ar
8 7 28 1
9 6 8 ar
10 8 14 1
11 5 9 ar
12 10 29 1
13 6 11 ar
14 12 16 1
15 9 13 ar
16 12 13 ar
17 13 15 1
18 16 17 1
19 17 18 1
20 18 19 1
21 19 20 1
22 15 21 1
23 21 22 ar
24 22 24 ar
25 21 23 ar
26 10 24 1
27 24 26 ar
28 4 25 1
29 23 25 ar
30 7 26 1
31 25 26 ar
@<TRIPOS>SUBSTRUCTURE
1	PU91224	1	GROUP	1 A	PU9
