# created with PyMOL 3.1.3.1
@<TRIPOS>MOLECULE
4NH8_A
29 32 1                 
SMALL
USER_CHARGES
@<TRIPOS>ATOM
1	  C1	-7.397	-9.774	-26.303	C.3	1	2LC301	0.000	
2	  C2	-6.263	-10.688	-25.914	C.2	1	2LC301	0.000	
3	  C3	-4.948	-10.377	-26.005	C.2	1	2LC301	0.000	
4	  N4	-4.176	-11.426	-25.532	N.2	1	2LC301	0.000	
5	  C5	-5.038	-12.435	-25.119	C.2	1	2LC301	0.000	
6	  C6	-6.333	-12.012	-25.359	C.2	1	2LC301	0.000	
7	  C7	-7.437	-12.932	-25.040	C.2	1	2LC301	0.000	
8	  O8	-8.609	-12.589	-25.149	O.2	1	2LC301	0.000	
9	  C9	-7.079	-14.310	-24.530	C.3	1	2LC301	0.000	
10	 C10	-5.802	-14.382	-23.677	C.3	1	2LC301	0.000	
11	 C11	-6.017	-13.649	-22.350	C.3	1	2LC301	0.000	
12	 C12	-5.446	-15.836	-23.380	C.3	1	2LC301	0.000	
13	 C13	-4.660	-13.731	-24.466	C.3	1	2LC301	0.000	
14	 C14	-2.752	-11.365	-25.330	C.2	1	2LC301	0.000	
15	 C15	-2.187	-10.183	-24.854	C.2	1	2LC301	0.000	
16	 C16	-0.806	-10.104	-24.637	C.2	1	2LC301	0.000	
17	 N17	-0.243	-8.913	-24.229	N.pl3	1	2LC301	0.000	
18	 C18	-0.937	-7.684	-23.858	C.3	1	2LC301	0.000	
19	 C20	-1.473	-7.781	-22.424	C.3	1	2LC301	0.000	
20	 C21	-0.258	-7.420	-21.582	C.3	1	2LC301	0.000	
21	 O22	0.609	-6.660	-22.445	O.3	1	2LC301	0.000	
22	 C23	0.039	-6.536	-23.748	C.3	1	2LC301	0.000	
23	 C24	0.007	-11.256	-24.885	C.2	1	2LC301	0.000	
24	 C25	1.493	-11.235	-24.602	C.2	1	2LC301	0.000	
25	 N26	1.860	-10.552	-23.544	N.pl3	1	2LC301	0.000	
26	 O27	2.309	-11.866	-25.307	O.2	1	2LC301	0.000	
27	 C28	-0.622	-12.409	-25.343	C.2	1	2LC301	0.000	
28	 C30	-1.965	-12.490	-25.598	C.2	1	2LC301	0.000	
29	 F29	0.134	-13.521	-25.510	 F	1	2LC301	0.000	
@<TRIPOS>BOND
1 1 2 1
2 2 3 ar
3 2 6 ar
4 3 4 ar
5 4 5 ar
6 4 14 1
7 5 6 ar
8 5 13 1
9 6 7 1
10 7 8 2
11 7 9 1
12 9 10 1
13 10 11 1
14 10 12 1
15 10 13 1
16 14 15 ar
17 14 28 ar
18 15 16 ar
19 16 17 1
20 16 23 ar
21 17 18 1
22 18 19 1
23 18 22 1
24 19 20 1
25 20 21 1
26 21 22 1
27 23 24 1
28 23 27 ar
29 24 25 1
30 24 26 2
31 27 28 ar
32 27 29 1
@<TRIPOS>SUBSTRUCTURE
1	2LC301	1	GROUP	1 A	2LC
