# created with PyMOL 3.1.3.1
@<TRIPOS>MOLECULE
1UYH_A
26 28 1                 
SMALL
USER_CHARGES
@<TRIPOS>ATOM
1	  C1	-4.280	-11.763	-25.835	C.2	1	PU01224	0.000	
2	  N1	-0.875	-11.076	-25.830	N.2	1	PU01224	0.000	
3	  C2	-3.756	-12.893	-25.202	C.2	1	PU01224	0.000	
4	  N2	-2.123	-9.913	-24.362	N.2	1	PU01224	0.000	
5	  O2	-4.023	-14.987	-24.095	O.3	1	PU01224	0.000	
6	  C3	-4.599	-13.901	-24.695	C.2	1	PU01224	0.000	
7	  N3	1.739	-10.453	-23.301	N.2	1	PU01224	0.000	
8	  C4	-5.986	-13.820	-24.854	C.2	1	PU01224	0.000	
9	  N4	-0.376	-9.598	-22.689	N.2	1	PU01224	0.000	
10	  C5	-6.512	-12.672	-25.490	C.2	1	PU01224	0.000	
11	  N5	2.109	-11.567	-25.353	N.pl3	1	PU01224	0.000	
12	  C6	-5.691	-11.659	-25.967	C.2	1	PU01224	0.000	
13	  C8	-4.761	-16.105	-23.578	C.3	1	PU01224	0.000	
14	  C9	-3.371	-10.662	-26.380	C.3	1	PU01224	0.000	
15	 C10	-2.126	-10.549	-25.547	C.2	1	PU01224	0.000	
16	 C11	-0.098	-10.729	-24.763	C.2	1	PU01224	0.000	
17	 C12	-0.889	-10.047	-23.855	C.2	1	PU01224	0.000	
18	 C13	1.261	-10.911	-24.482	C.2	1	PU01224	0.000	
19	 C14	0.946	-9.826	-22.443	C.2	1	PU01224	0.000	
20	 C15	-3.307	-9.289	-23.711	C.3	1	PU01224	0.000	
21	 C16	-3.290	-7.768	-23.716	C.3	1	PU01224	0.000	
22	 C17	-3.814	-7.165	-25.006	C.3	1	PU01224	0.000	
23	 C18	-5.229	-7.585	-25.368	C.3	1	PU01224	0.000	
24	 C19	-7.597	-10.220	-26.671	C.3	1	PU01224	0.000	
25	 O20	-6.207	-10.561	-26.604	O.3	1	PU01224	0.000	
26	  F1	1.509	-9.424	-21.304	 F	1	PU01224	0.000	
@<TRIPOS>BOND
1 1 14 1
2 2 16 ar
3 1 3 ar
4 4 20 1
5 5 13 1
6 3 6 ar
7 5 6 1
8 6 8 ar
9 9 19 ar
10 8 10 ar
11 10 12 ar
12 1 12 ar
13 14 15 1
14 2 15 ar
15 4 15 ar
16 16 17 ar
17 16 18 ar
18 4 17 ar
19 9 17 ar
20 7 18 ar
21 11 18 1
22 7 19 ar
23 19 26 1
24 20 21 1
25 21 22 1
26 22 23 1
27 24 25 1
28 12 25 1
@<TRIPOS>SUBSTRUCTURE
1	PU01224	1	GROUP	1 A	PU0
