# created with PyMOL 3.1.3.1
@<TRIPOS>MOLECULE
3R4N_B
23 24 1                 
SMALL
USER_CHARGES
@<TRIPOS>ATOM
1	CL10	-1.881	-13.809	-24.896	Cl	1	FU5901	0.000	
2	  C1	-2.175	-11.045	-25.036	C.2	1	FU5901	0.000	
3	  C2	-0.798	-10.932	-24.463	C.2	1	FU5901	0.000	
4	  C3	-2.934	-9.854	-25.367	C.2	1	FU5901	0.000	
5	  C4	-2.744	-12.353	-25.265	C.2	1	FU5901	0.000	
6	  C5	-0.631	-10.368	-23.206	C.2	1	FU5901	0.000	
7	  N6	0.287	-11.387	-25.206	N.2	1	FU5901	0.000	
8	  C7	-4.260	-9.999	-25.919	C.2	1	FU5901	0.000	
9	  O8	-2.314	-8.636	-25.122	O.3	1	FU5901	0.000	
10	  C9	-4.057	-12.462	-25.814	C.2	1	FU5901	0.000	
11	 C11	0.651	-10.284	-22.742	C.2	1	FU5901	0.000	
12	 C12	1.523	-11.275	-24.686	C.2	1	FU5901	0.000	
13	 C13	-4.815	-11.295	-26.139	C.2	1	FU5901	0.000	
14	 C14	-2.813	-7.422	-25.341	C.3	1	FU5901	0.000	
15	 N15	1.727	-10.733	-23.472	N.2	1	FU5901	0.000	
16	 C16	0.900	-9.674	-21.378	C.3	1	FU5901	0.000	
17	 N17	2.617	-11.727	-25.429	N.pl3	1	FU5901	0.000	
18	 C18	-1.820	-6.318	-24.942	C.3	1	FU5901	0.000	
19	 C19	-1.273	-6.586	-23.524	C.3	1	FU5901	0.000	
20	 C20	-0.251	-5.546	-23.037	C.3	1	FU5901	0.000	
21	 F21	-0.769	-4.267	-23.092	 F	1	FU5901	0.000	
22	 F22	0.104	-5.813	-21.730	 F	1	FU5901	0.000	
23	 F23	0.890	-5.590	-23.810	 F	1	FU5901	0.000	
@<TRIPOS>BOND
1 2 3 1
2 2 4 ar
3 2 5 ar
4 3 6 ar
5 3 7 ar
6 4 8 ar
7 4 9 1
8 1 5 1
9 5 10 ar
10 6 11 ar
11 7 12 ar
12 8 13 ar
13 9 14 1
14 10 13 ar
15 11 15 ar
16 11 16 1
17 12 15 ar
18 12 17 1
19 14 18 1
20 18 19 1
21 19 20 1
22 20 21 1
23 20 22 1
24 20 23 1
@<TRIPOS>SUBSTRUCTURE
1	FU5901	1	GROUP	1 B	FU5
