# created with PyMOL 3.1.3.1
@<TRIPOS>MOLECULE
1UYF_A
30 32 1                 
SMALL
USER_CHARGES
@<TRIPOS>ATOM
1	  CL	-2.282	-14.047	-25.067	Cl	1	PU11224	0.000	
2	  C1	-0.585	-10.265	-23.844	C.2	1	PU11224	0.000	
3	  N1	-0.154	-9.778	-22.721	N.2	1	PU11224	0.000	
4	  O1	-7.823	-11.760	-25.305	O.3	1	PU11224	0.000	
5	  C2	0.179	-10.926	-24.741	C.2	1	PU11224	0.000	
6	  N2	1.897	-10.530	-23.318	N.2	1	PU11224	0.000	
7	  O2	-7.279	-14.097	-24.172	O.3	1	PU11224	0.000	
8	  C3	1.489	-11.075	-24.455	C.2	1	PU11224	0.000	
9	  N3	-0.618	-11.418	-25.849	N.2	1	PU11224	0.000	
10	  O3	-5.081	-15.130	-24.014	O.3	1	PU11224	0.000	
11	  C4	1.130	-9.930	-22.471	C.2	1	PU11224	0.000	
12	  N4	-1.925	-10.293	-24.323	N.2	1	PU11224	0.000	
13	  C5	-1.825	-10.995	-25.603	C.2	1	PU11224	0.000	
14	  N5	2.468	-11.749	-25.278	N.pl3	1	PU11224	0.000	
15	  C6	-3.034	-11.215	-26.466	C.3	1	PU11224	0.000	
16	  C7	-3.096	-9.631	-23.722	C.3	1	PU11224	0.000	
17	  C8	-2.971	-8.122	-23.837	C.3	1	PU11224	0.000	
18	  C9	-3.415	-7.468	-25.118	C.3	1	PU11224	0.000	
19	 C10	-4.802	-7.773	-25.703	C.3	1	PU11224	0.000	
20	 C11	-5.842	-8.056	-26.181	C.3	1	PU11224	0.000	
21	 C12	-4.126	-12.045	-25.833	C.2	1	PU11224	0.000	
22	 C13	-3.874	-13.285	-25.181	C.2	1	PU11224	0.000	
23	 C14	-5.418	-11.520	-25.910	C.2	1	PU11224	0.000	
24	 C15	-4.998	-13.908	-24.675	C.2	1	PU11224	0.000	
25	 C16	-6.487	-12.211	-25.362	C.2	1	PU11224	0.000	
26	 C17	-6.241	-13.375	-24.761	C.2	1	PU11224	0.000	
27	 C18	-8.178	-10.748	-26.266	C.3	1	PU11224	0.000	
28	 C19	-7.726	-15.292	-24.801	C.3	1	PU11224	0.000	
29	 C20	-4.084	-15.697	-23.231	C.3	1	PU11224	0.000	
30	   F	1.685	-9.456	-21.333	 F	1	PU11224	0.000	
@<TRIPOS>BOND
1 1 22 1
2 2 3 ar
3 2 12 ar
4 3 11 ar
5 4 27 1
6 2 5 ar
7 5 8 ar
8 7 28 1
9 6 8 ar
10 8 14 1
11 5 9 ar
12 10 29 1
13 6 11 ar
14 11 30 1
15 12 16 1
16 9 13 ar
17 12 13 ar
18 13 15 1
19 16 17 1
20 17 18 1
21 18 19 1
22 19 20 1
23 15 21 1
24 21 22 ar
25 22 24 ar
26 21 23 ar
27 10 24 1
28 24 26 ar
29 4 25 1
30 23 25 ar
31 7 26 1
32 25 26 ar
@<TRIPOS>SUBSTRUCTURE
1	PU11224	1	GROUP	1 A	PU1
