# created with PyMOL 3.1.3.1
@<TRIPOS>MOLECULE
3B24_A
11 11 1                 
SMALL
USER_CHARGES
@<TRIPOS>ATOM
1	  C1	0.207	-6.844	-22.352	C.3	1	B2J237	0.000	
2	  C2	-0.452	-8.004	-21.594	C.3	1	B2J237	0.000	
3	  S3	0.740	-9.396	-21.529	S.3	1	B2J237	0.000	
4	  C4	0.468	-10.184	-23.052	C.2	1	B2J237	0.000	
5	  N5	1.538	-10.665	-23.687	N.2	1	B2J237	0.000	
6	  N6	-0.764	-10.329	-23.579	N.2	1	B2J237	0.000	
7	  C7	-0.915	-10.957	-24.755	C.2	1	B2J237	0.000	
8	  C8	-2.336	-11.148	-25.340	C.3	1	B2J237	0.000	
9	  N9	0.175	-11.434	-25.399	N.2	1	B2J237	0.000	
10	 C10	1.406	-11.247	-24.881	C.2	1	B2J237	0.000	
11	 N11	2.502	-11.610	-25.524	N.pl3	1	B2J237	0.000	
@<TRIPOS>BOND
1 1 2 1
2 2 3 1
3 3 4 1
4 4 5 ar
5 4 6 ar
6 5 10 ar
7 6 7 ar
8 7 8 1
9 7 9 ar
10 9 10 ar
11 10 11 1
@<TRIPOS>SUBSTRUCTURE
1	B2J237	1	GROUP	1 A	B2J
