# created with PyMOL 3.1.3.1
@<TRIPOS>MOLECULE
3MNR_P
35 38 1                 
SMALL
USER_CHARGES
@<TRIPOS>ATOM
1	  C1	-4.318	-13.630	-24.591	C.3	1	SD1233	0.000	
2	  C2	-4.680	-12.248	-25.074	C.2	1	SD1233	0.000	
3	  C3	-6.053	-11.778	-25.344	C.2	1	SD1233	0.000	
4	  C4	-7.166	-12.750	-25.111	C.2	1	SD1233	0.000	
5	  C5	-6.799	-14.186	-24.755	C.3	1	SD1233	0.000	
6	  C6	-5.524	-14.281	-23.896	C.3	1	SD1233	0.000	
7	  C7	-5.172	-15.741	-23.641	C.3	1	SD1233	0.000	
8	  C8	-5.750	-13.625	-22.528	C.3	1	SD1233	0.000	
9	  O9	-8.329	-12.396	-25.162	O.2	1	SD1233	0.000	
10	 C10	-5.993	-10.440	-25.748	C.2	1	SD1233	0.000	
11	 C11	-4.625	-10.122	-25.723	C.2	1	SD1233	0.000	
12	 N12	-3.917	-11.193	-25.366	N.2	1	SD1233	0.000	
13	 C13	-4.248	-8.718	-26.122	C.3	1	SD1233	0.000	
14	 C14	-2.590	-11.233	-25.165	C.2	1	SD1233	0.000	
15	 C15	-1.705	-12.106	-25.823	C.2	1	SD1233	0.000	
16	 C16	-0.329	-12.146	-25.535	C.2	1	SD1233	0.000	
17	 C17	0.216	-11.318	-24.560	C.2	1	SD1233	0.000	
18	 C18	-0.678	-10.385	-23.832	C.2	1	SD1233	0.000	
19	 C19	-2.035	-10.407	-24.171	C.2	1	SD1233	0.000	
20	 C20	1.691	-11.353	-24.245	C.2	1	SD1233	0.000	
21	 O21	2.081	-10.999	-23.144	O.2	1	SD1233	0.000	
22	 N22	2.543	-11.769	-25.174	N.pl3	1	SD1233	0.000	
23	 N23	-0.186	-9.564	-22.852	N.pl3	1	SD1233	0.000	
24	 C24	-0.639	-8.307	-22.516	C.2	1	SD1233	0.000	
25	 C25	-1.007	-7.371	-23.501	C.2	1	SD1233	0.000	
26	 C26	-1.448	-6.077	-23.167	C.2	1	SD1233	0.000	
27	 C27	-1.520	-5.687	-21.743	C.2	1	SD1233	0.000	
28	 C28	-1.130	-6.683	-20.730	C.2	1	SD1233	0.000	
29	 C29	-0.705	-7.955	-21.153	C.2	1	SD1233	0.000	
30	 O30	-1.220	-6.296	-19.421	O.3	1	SD1233	0.000	
31	 C31	-1.195	-7.264	-18.363	C.3	1	SD1233	0.000	
32	 O32	-1.946	-4.448	-21.350	O.3	1	SD1233	0.000	
33	 C33	-3.353	-4.211	-21.281	C.3	1	SD1233	0.000	
34	 O34	-1.807	-5.128	-24.091	O.3	1	SD1233	0.000	
35	 C35	-1.975	-5.416	-25.481	C.3	1	SD1233	0.000	
@<TRIPOS>BOND
1 1 2 1
2 1 6 1
3 2 3 ar
4 2 12 ar
5 3 4 1
6 3 10 ar
7 4 5 1
8 4 9 2
9 5 6 1
10 6 7 1
11 6 8 1
12 10 11 ar
13 11 12 ar
14 11 13 1
15 12 14 1
16 14 15 ar
17 14 19 ar
18 15 16 ar
19 16 17 ar
20 17 18 ar
21 17 20 1
22 18 19 ar
23 18 23 1
24 20 21 2
25 20 22 1
26 23 24 1
27 24 25 ar
28 24 29 ar
29 25 26 ar
30 26 27 ar
31 26 34 1
32 27 28 ar
33 27 32 1
34 28 29 ar
35 28 30 1
36 30 31 1
37 32 33 1
38 34 35 1
@<TRIPOS>SUBSTRUCTURE
1	SD1233	1	GROUP	1 P	SD1
