# created with PyMOL 3.1.3.1
@<TRIPOS>MOLECULE
1UY7_A
23 25 1                 
SMALL
USER_CHARGES
@<TRIPOS>ATOM
1	  C1	-4.061	-11.638	-25.562	C.2	1	PU41224	0.000	
2	  N1	-0.629	-11.065	-25.652	N.2	1	PU41224	0.000	
3	  O1	-6.297	-14.823	-24.128	O.3	1	PU41224	0.000	
4	  C2	-3.345	-12.797	-25.170	C.2	1	PU41224	0.000	
5	  N2	-1.915	-9.767	-24.203	N.2	1	PU41224	0.000	
6	  C3	-4.137	-13.860	-24.692	C.2	1	PU41224	0.000	
7	  N3	1.878	-10.353	-23.091	N.2	1	PU41224	0.000	
8	  C4	-5.539	-13.769	-24.621	C.2	1	PU41224	0.000	
9	  N4	-0.266	-9.334	-22.530	N.2	1	PU41224	0.000	
10	  C5	-6.210	-12.602	-25.013	C.2	1	PU41224	0.000	
11	  N5	2.331	-11.639	-25.100	N.pl3	1	PU41224	0.000	
12	  C6	-5.446	-11.529	-25.476	C.2	1	PU41224	0.000	
13	  C7	-5.713	-15.862	-23.346	C.3	1	PU41224	0.000	
14	  C9	-3.112	-10.560	-26.059	C.3	1	PU41224	0.000	
15	 C10	-1.768	-10.451	-25.342	C.2	1	PU41224	0.000	
16	 C11	0.203	-10.657	-24.653	C.2	1	PU41224	0.000	
17	 C12	-0.677	-9.876	-23.752	C.2	1	PU41224	0.000	
18	 C13	1.545	-10.907	-24.278	C.2	1	PU41224	0.000	
19	 C14	1.131	-9.553	-22.174	C.2	1	PU41224	0.000	
20	 C15	-3.039	-9.068	-23.610	C.3	1	PU41224	0.000	
21	 C16	-2.921	-7.565	-23.789	C.3	1	PU41224	0.000	
22	 C17	-3.506	-7.044	-24.881	C.3	1	PU41224	0.000	
23	 C18	-5.055	-7.064	-25.034	C.3	1	PU41224	0.000	
@<TRIPOS>BOND
1 1 4 ar
2 1 12 ar
3 2 15 ar
4 3 13 1
5 4 6 ar
6 5 15 ar
7 5 17 ar
8 6 8 ar
9 7 18 ar
10 3 8 1
11 9 19 ar
12 8 10 ar
13 10 12 ar
14 1 14 1
15 14 15 1
16 2 16 ar
17 16 18 ar
18 9 17 ar
19 16 17 ar
20 11 18 1
21 7 19 ar
22 5 20 1
23 20 21 1
24 21 22 1
25 22 23 1
@<TRIPOS>SUBSTRUCTURE
1	PU41224	1	GROUP	1 A	PU4
