# created with PyMOL 3.1.3.1
@<TRIPOS>MOLECULE
2WI3_A
10 10 1                 
SMALL
USER_CHARGES
@<TRIPOS>ATOM
1	  N1	1.649	-12.073	-26.258	N.2	1	ZZ31225	0.000	
2	  S1	-2.264	-11.007	-24.565	S.3	1	ZZ31225	0.000	
3	  C2	1.580	-11.402	-25.088	C.2	1	ZZ31225	0.000	
4	  C3	0.516	-12.416	-26.908	C.2	1	ZZ31225	0.000	
5	  N3	-0.686	-12.089	-26.387	N.2	1	ZZ31225	0.000	
6	  C4	-0.754	-11.418	-25.218	C.2	1	ZZ31225	0.000	
7	  N4	0.378	-11.075	-24.568	N.2	1	ZZ31225	0.000	
8	  N5	2.716	-11.058	-24.436	N.pl3	1	ZZ31225	0.000	
9	  C6	-3.403	-10.690	-25.872	C.3	1	ZZ31225	0.000	
10	  C8	0.594	-13.164	-28.212	C.3	1	ZZ31225	0.000	
@<TRIPOS>BOND
1 1 4 ar
2 2 9 1
3 1 3 ar
4 3 7 ar
5 4 5 ar
6 4 10 1
7 2 6 1
8 5 6 ar
9 6 7 ar
10 3 8 1
@<TRIPOS>SUBSTRUCTURE
1	ZZ31225	1	GROUP	1 A	ZZ3
