# created with PyMOL 3.1.3.1
@<TRIPOS>MOLECULE
3B24_B
11 11 1                 
SMALL
USER_CHARGES
@<TRIPOS>ATOM
1	  C1	-5.005	-9.827	-25.158	C.3	1	B2J2	0.000	
2	  C2	-3.545	-9.767	-24.687	C.3	1	B2J2	0.000	
3	  S3	-2.530	-11.147	-25.359	S.3	1	B2J2	0.000	
4	  C4	-0.951	-10.891	-24.627	C.2	1	B2J2	0.000	
5	  N5	0.109	-11.348	-25.306	N.2	1	B2J2	0.000	
6	  N6	-0.798	-10.287	-23.436	N.2	1	B2J2	0.000	
7	  C7	0.447	-10.147	-22.910	C.2	1	B2J2	0.000	
8	  C8	0.658	-9.513	-21.504	C.3	1	B2J2	0.000	
9	  N9	1.509	-10.649	-23.579	N.2	1	B2J2	0.000	
10	 C10	1.355	-11.188	-24.810	C.2	1	B2J2	0.000	
11	 N11	2.396	-11.658	-25.493	N.pl3	1	B2J2	0.000	
@<TRIPOS>BOND
1 1 2 1
2 2 3 1
3 3 4 1
4 4 5 ar
5 4 6 ar
6 5 10 ar
7 6 7 ar
8 7 8 1
9 7 9 ar
10 9 10 ar
11 10 11 1
@<TRIPOS>SUBSTRUCTURE
1	B2J2	1	GROUP	1 B	B2J
