# created with PyMOL 3.1.3.1
@<TRIPOS>MOLECULE
1UYI_A
27 29 1                 
SMALL
USER_CHARGES
@<TRIPOS>ATOM
1	  C1	-4.145	-11.777	-25.770	C.2	1	PUZ1224	0.000	
2	  N1	-0.775	-10.994	-25.616	N.2	1	PUZ1224	0.000	
3	  C2	-5.521	-11.720	-26.071	C.2	1	PUZ1224	0.000	
4	  N2	-2.050	-9.986	-24.103	N.2	1	PUZ1224	0.000	
5	  O2	-6.005	-10.594	-26.706	O.3	1	PUZ1224	0.000	
6	  C3	-6.386	-12.789	-25.760	C.2	1	PUZ1224	0.000	
7	  N3	1.804	-10.478	-23.059	N.2	1	PUZ1224	0.000	
8	  C4	-5.822	-13.911	-25.137	C.2	1	PUZ1224	0.000	
9	  N4	-0.319	-9.693	-22.436	N.2	1	PUZ1224	0.000	
10	  C5	-4.458	-13.964	-24.807	C.2	1	PUZ1224	0.000	
11	  N5	2.236	-11.446	-25.094	N.pl3	1	PUZ1224	0.000	
12	  O5	-3.918	-15.068	-24.186	O.3	1	PUZ1224	0.000	
13	  C6	-3.606	-12.890	-25.132	C.2	1	PUZ1224	0.000	
14	  C7	-7.284	-10.034	-26.388	C.3	1	PUZ1224	0.000	
15	  C8	-4.691	-16.208	-23.776	C.3	1	PUZ1224	0.000	
16	  C9	-3.266	-10.601	-26.181	C.3	1	PUZ1224	0.000	
17	 C10	-2.023	-10.517	-25.332	C.2	1	PUZ1224	0.000	
18	 C11	0.006	-10.700	-24.545	C.2	1	PUZ1224	0.000	
19	 C12	-0.795	-10.090	-23.619	C.2	1	PUZ1224	0.000	
20	 C13	1.357	-10.880	-24.248	C.2	1	PUZ1224	0.000	
21	 C14	0.976	-9.898	-22.180	C.2	1	PUZ1224	0.000	
22	 C15	-3.229	-9.408	-23.425	C.3	1	PUZ1224	0.000	
23	 C16	-3.122	-7.882	-23.569	C.3	1	PUZ1224	0.000	
24	 C17	-4.445	-7.235	-23.107	C.3	1	PUZ1224	0.000	
25	 C18	-4.732	-7.582	-21.689	C.3	1	PUZ1224	0.000	
26	 C19	-4.938	-7.895	-20.447	C.3	1	PUZ1224	0.000	
27	  F1	1.440	-9.503	-21.023	 F	1	PUZ1224	0.000	
@<TRIPOS>BOND
1 1 3 ar
2 1 13 ar
3 2 17 ar
4 3 5 1
5 3 6 ar
6 4 17 ar
7 4 19 ar
8 5 14 1
9 6 8 ar
10 7 21 ar
11 8 10 ar
12 9 21 ar
13 10 12 1
14 10 13 ar
15 12 15 1
16 1 16 1
17 16 17 1
18 2 18 ar
19 18 20 ar
20 9 19 ar
21 18 19 ar
22 7 20 ar
23 11 20 1
24 21 27 1
25 4 22 1
26 22 23 1
27 23 24 1
28 24 25 1
29 25 26 1
@<TRIPOS>SUBSTRUCTURE
1	PUZ1224	1	GROUP	1 A	PUZ
