# created with PyMOL 3.1.3.1
@<TRIPOS>MOLECULE
3VHD_B
27 29 1                 
SMALL
USER_CHARGES
@<TRIPOS>ATOM
1	  C1	-2.016	-11.320	-24.997	C.2	1	VHE1	0.000	
2	  C2	-2.562	-12.541	-25.383	C.2	1	VHE1	0.000	
3	  C3	-3.886	-12.554	-25.855	C.2	1	VHE1	0.000	
4	  C4	-4.721	-11.361	-25.928	C.2	1	VHE1	0.000	
5	  C5	-4.153	-10.154	-25.521	C.2	1	VHE1	0.000	
6	  C6	-2.807	-10.116	-25.049	C.2	1	VHE1	0.000	
7	  C7	-4.818	-8.885	-25.536	C.2	1	VHE1	0.000	
8	  C8	-6.188	-11.403	-26.393	C.3	1	VHE1	0.000	
9	  O9	-5.397	-8.482	-26.584	O.2	1	VHE1	0.000	
10	 N10	-4.729	-8.132	-24.380	N.pl3	1	VHE1	0.000	
11	 C11	-1.810	-13.852	-25.384	C.3	1	VHE1	0.000	
12	 C12	-0.659	-11.140	-24.500	C.2	1	VHE1	0.000	
13	 C13	-0.480	-10.500	-23.255	C.2	1	VHE1	0.000	
14	 C14	0.843	-10.341	-22.832	C.2	1	VHE1	0.000	
15	 N15	1.887	-10.830	-23.505	N.2	1	VHE1	0.000	
16	 C16	1.654	-11.448	-24.691	C.2	1	VHE1	0.000	
17	 N17	0.388	-11.648	-25.192	N.2	1	VHE1	0.000	
18	 N18	2.709	-11.922	-25.434	N.pl3	1	VHE1	0.000	
19	 C19	-5.324	-6.745	-24.202	C.3	1	VHE1	0.000	
20	 C20	-4.599	-6.060	-23.024	C.3	1	VHE1	0.000	
21	 C21	-3.288	-5.476	-23.510	C.3	1	VHE1	0.000	
22	 N22	-2.104	-6.346	-23.406	N.pl3	1	VHE1	0.000	
23	 C23	-1.438	-6.475	-22.228	C.2	1	VHE1	0.000	
24	 C24	-0.231	-7.358	-22.232	C.3	1	VHE1	0.000	
25	 O25	-1.814	-5.899	-21.211	O.2	1	VHE1	0.000	
26	 C26	-0.170	-8.337	-21.039	C.3	1	VHE1	0.000	
27	 S27	1.192	-9.539	-21.320	S.3	1	VHE1	0.000	
@<TRIPOS>BOND
1 1 2 ar
2 1 6 ar
3 1 12 1
4 2 3 ar
5 2 11 1
6 3 4 ar
7 4 5 ar
8 4 8 1
9 5 6 ar
10 5 7 1
11 7 9 2
12 7 10 1
13 10 19 1
14 12 13 ar
15 12 17 ar
16 13 14 ar
17 14 15 ar
18 14 27 1
19 15 16 ar
20 16 17 ar
21 16 18 1
22 19 20 1
23 20 21 1
24 21 22 1
25 22 23 1
26 23 24 1
27 23 25 2
28 24 26 1
29 26 27 1
@<TRIPOS>SUBSTRUCTURE
1	VHE1	1	GROUP	1 B	VHE
