# created with PyMOL 3.1.3.1
@<TRIPOS>MOLECULE
3B27_A
16 17 1                 
SMALL
USER_CHARGES
@<TRIPOS>ATOM
1	CL18	-1.728	-13.737	-24.982	Cl	1	B2T1	0.000	
2	  C1	-0.377	-8.457	-20.941	C.3	1	B2T1	0.000	
3	  S2	1.059	-9.482	-21.300	S.3	1	B2T1	0.000	
4	  C3	0.697	-10.154	-22.866	C.2	1	B2T1	0.000	
5	  N4	-0.571	-10.246	-23.302	N.2	1	B2T1	0.000	
6	  N5	1.722	-10.677	-23.531	N.2	1	B2T1	0.000	
7	  C6	1.512	-11.236	-24.734	C.2	1	B2T1	0.000	
8	  N7	2.508	-11.765	-25.415	N.pl3	1	B2T1	0.000	
9	 N10	0.244	-11.351	-25.190	N.2	1	B2T1	0.000	
10	 C11	-0.792	-10.855	-24.490	C.2	1	B2T1	0.000	
11	 C12	-2.089	-10.993	-25.010	C.2	1	B2T1	0.000	
12	 C13	-2.855	-9.845	-25.212	C.2	1	B2T1	0.000	
13	 C14	-4.161	-9.985	-25.721	C.2	1	B2T1	0.000	
14	 C15	-4.661	-11.264	-26.008	C.2	1	B2T1	0.000	
15	 C16	-3.909	-12.412	-25.798	C.2	1	B2T1	0.000	
16	 C17	-2.606	-12.274	-25.298	C.2	1	B2T1	0.000	
@<TRIPOS>BOND
1 2 3 1
2 3 4 1
3 4 5 ar
4 4 6 ar
5 5 10 ar
6 6 7 ar
7 7 8 1
8 7 9 ar
9 9 10 ar
10 10 11 1
11 11 12 ar
12 11 16 ar
13 12 13 ar
14 13 14 ar
15 14 15 ar
16 15 16 ar
17 1 16 1
@<TRIPOS>SUBSTRUCTURE
1	B2T1	1	GROUP	1 A	B2T
