# created with PyMOL 3.1.3.1
@<TRIPOS>MOLECULE
1UY9_A
24 27 1                 
SMALL
USER_CHARGES
@<TRIPOS>ATOM
1	  C1	-4.046	-12.037	-25.658	C.2	1	PU61224	0.000	
2	  N1	-0.721	-11.141	-25.574	N.2	1	PU61224	0.000	
3	  O1	-6.279	-15.111	-24.020	O.2	1	PU61224	0.000	
4	  C2	-5.441	-11.877	-25.671	C.2	1	PU61224	0.000	
5	  N2	-2.022	-10.034	-24.213	N.2	1	PU61224	0.000	
6	  C3	-6.276	-12.866	-25.136	C.2	1	PU61224	0.000	
7	  N3	1.830	-10.351	-23.099	N.2	1	PU61224	0.000	
8	  O3	-4.029	-15.375	-23.990	O.2	1	PU61224	0.000	
9	  C4	-5.678	-13.999	-24.608	C.2	1	PU61224	0.000	
10	  N4	-0.305	-9.519	-22.535	N.2	1	PU61224	0.000	
11	  C5	-4.320	-14.159	-24.586	C.2	1	PU61224	0.000	
12	  N5	2.277	-11.544	-25.094	N.pl3	1	PU61224	0.000	
13	  C6	-3.460	-13.199	-25.107	C.2	1	PU61224	0.000	
14	  C7	-5.252	-16.022	-23.609	C.2	1	PU61224	0.000	
15	  C9	-3.192	-10.940	-26.274	C.3	1	PU61224	0.000	
16	 C10	-1.988	-10.716	-25.387	C.2	1	PU61224	0.000	
17	 C11	0.067	-10.745	-24.558	C.2	1	PU61224	0.000	
18	 C12	-0.765	-10.050	-23.694	C.2	1	PU61224	0.000	
19	 C13	1.400	-10.891	-24.266	C.2	1	PU61224	0.000	
20	 C14	1.007	-9.688	-22.255	C.2	1	PU61224	0.000	
21	 C15	-3.206	-9.416	-23.604	C.3	1	PU61224	0.000	
22	 C16	-3.106	-7.896	-23.836	C.3	1	PU61224	0.000	
23	 C17	-3.461	-7.454	-25.263	C.3	1	PU61224	0.000	
24	 C18	-4.939	-7.611	-25.621	C.3	1	PU61224	0.000	
@<TRIPOS>BOND
1 1 4 ar
2 1 13 ar
3 2 16 ar
4 3 14 ar
5 4 6 ar
6 5 16 ar
7 5 18 ar
8 6 9 ar
9 7 19 ar
10 8 14 ar
11 3 9 ar
12 10 20 ar
13 8 11 ar
14 9 11 ar
15 11 13 ar
16 1 15 1
17 15 16 1
18 2 17 ar
19 17 19 ar
20 10 18 ar
21 17 18 ar
22 12 19 1
23 7 20 ar
24 5 21 1
25 21 22 1
26 22 23 1
27 23 24 1
@<TRIPOS>SUBSTRUCTURE
1	PU61224	1	GROUP	1 A	PU6
