# created with PyMOL 3.1.3.1
@<TRIPOS>MOLECULE
1UY6_A
27 29 1                 
SMALL
USER_CHARGES
@<TRIPOS>ATOM
1	  C1	-4.260	-11.833	-25.575	C.2	1	PU31224	0.000	
2	  N1	-0.686	-11.349	-25.680	N.2	1	PU31224	0.000	
3	  O1	-7.555	-13.819	-23.922	O.3	1	PU31224	0.000	
4	  C2	-4.043	-12.959	-24.749	C.2	1	PU31224	0.000	
5	  N2	-1.956	-10.102	-24.253	N.2	1	PU31224	0.000	
6	  O2	-5.115	-14.784	-23.446	O.3	1	PU31224	0.000	
7	  C3	-5.155	-13.632	-24.207	C.2	1	PU31224	0.000	
8	  N3	1.904	-10.491	-23.136	N.2	1	PU31224	0.000	
9	  O3	-7.975	-11.520	-25.475	O.3	1	PU31224	0.000	
10	  C4	-6.507	-13.169	-24.474	C.2	1	PU31224	0.000	
11	  N4	-0.224	-9.559	-22.629	N.2	1	PU31224	0.000	
12	  C5	-6.695	-12.006	-25.316	C.2	1	PU31224	0.000	
13	  N5	2.321	-11.725	-25.081	N.pl3	1	PU31224	0.000	
14	  C6	-5.544	-11.392	-25.852	C.2	1	PU31224	0.000	
15	  C7	-7.870	-15.118	-24.460	C.3	1	PU31224	0.000	
16	  C8	-3.971	-15.590	-23.393	C.3	1	PU31224	0.000	
17	  C9	-3.100	-11.109	-26.234	C.3	1	PU31224	0.000	
18	 C10	-1.882	-10.822	-25.392	C.2	1	PU31224	0.000	
19	 C11	0.068	-10.920	-24.643	C.2	1	PU31224	0.000	
20	 C12	-0.742	-10.106	-23.743	C.2	1	PU31224	0.000	
21	 C13	1.475	-11.038	-24.291	C.2	1	PU31224	0.000	
22	 C14	1.080	-9.768	-22.335	C.2	1	PU31224	0.000	
23	 C15	-3.075	-9.350	-23.686	C.3	1	PU31224	0.000	
24	 C16	-2.842	-7.893	-24.083	C.3	1	PU31224	0.000	
25	 C17	-3.962	-7.279	-24.903	C.3	1	PU31224	0.000	
26	 C18	-3.996	-5.791	-24.534	C.3	1	PU31224	0.000	
27	 C19	-8.157	-10.331	-26.284	C.3	1	PU31224	0.000	
@<TRIPOS>BOND
1 1 17 1
2 2 19 ar
3 3 15 1
4 1 4 ar
5 5 23 1
6 6 16 1
7 4 7 ar
8 6 7 1
9 9 12 1
10 3 10 1
11 7 10 ar
12 11 22 ar
13 10 12 ar
14 12 14 ar
15 1 14 ar
16 17 18 1
17 2 18 ar
18 5 18 ar
19 19 20 ar
20 19 21 ar
21 5 20 ar
22 11 20 ar
23 8 21 ar
24 13 21 1
25 8 22 ar
26 23 24 1
27 24 25 1
28 25 26 1
29 9 27 1
@<TRIPOS>SUBSTRUCTURE
1	PU31224	1	GROUP	1 A	PU3
