# created with PyMOL 3.1.3.1
@<TRIPOS>MOLECULE
3WHA_A
34 36 2                 
SMALL
USER_CHARGES
@<TRIPOS>ATOM
1	  C1	2.466	1.617	-27.400	C.3	1	GOL301	0.000	
2	  O1	3.825	1.729	-27.814	O.3	1	GOL301	0.000	
3	  C2	2.044	0.167	-27.280	C.3	1	GOL301	0.000	
4	  O2	2.757	-0.462	-26.207	O.3	1	GOL301	0.000	
5	  C3	0.557	0.078	-27.023	C.3	1	GOL301	0.000	
6	  O3	0.235	0.609	-25.740	O.3	1	GOL301	0.000	
7	 CL1	-1.852	-13.796	-24.996	Cl	2	WHA302	0.000	
8	  C1	-6.326	-11.754	-26.444	C.3	2	WHA302	0.000	
9	  O2	-6.841	-10.613	-27.210	O.3	2	WHA302	0.000	
10	  C3	-6.773	-9.451	-26.388	C.3	2	WHA302	0.000	
11	  C4	-5.454	-9.164	-25.875	C.2	2	WHA302	0.000	
12	  C5	-5.020	-7.846	-25.655	C.2	2	WHA302	0.000	
13	  C6	-3.701	-7.583	-25.253	C.2	2	WHA302	0.000	
14	  C7	-2.821	-8.653	-25.030	C.2	2	WHA302	0.000	
15	  C8	-3.225	-9.991	-25.215	C.2	2	WHA302	0.000	
16	  C9	-4.555	-10.237	-25.672	C.2	2	WHA302	0.000	
17	 C10	-4.981	-11.547	-25.985	C.2	2	WHA302	0.000	
18	 C11	-4.114	-12.612	-25.817	C.2	2	WHA302	0.000	
19	 C12	-2.831	-12.387	-25.304	C.2	2	WHA302	0.000	
20	 C14	-2.349	-11.091	-25.022	C.2	2	WHA302	0.000	
21	 C15	-1.015	-10.936	-24.531	C.2	2	WHA302	0.000	
22	 N16	-0.831	-10.332	-23.338	N.2	2	WHA302	0.000	
23	 N17	0.062	-11.357	-25.240	N.2	2	WHA302	0.000	
24	 C18	1.290	-11.180	-24.764	C.2	2	WHA302	0.000	
25	 N19	2.296	-11.652	-25.455	N.pl3	2	WHA302	0.000	
26	 N22	1.486	-10.622	-23.562	N.2	2	WHA302	0.000	
27	 C23	0.423	-10.155	-22.881	C.2	2	WHA302	0.000	
28	 S24	0.733	-9.441	-21.349	S.3	2	WHA302	0.000	
29	 C25	-0.870	-8.624	-20.974	C.3	2	WHA302	0.000	
30	 C26	-1.078	-7.340	-21.771	C.3	2	WHA302	0.000	
31	 C27	-0.138	-6.225	-21.292	C.3	2	WHA302	0.000	
32	 C28	-0.295	-4.954	-22.078	C.2	2	WHA302	0.000	
33	 O29	-0.830	-3.965	-21.566	O.2	2	WHA302	0.000	
34	 N30	0.207	-4.996	-23.300	N.pl3	2	WHA302	0.000	
@<TRIPOS>BOND
1 1 2 1
2 1 3 1
3 3 4 1
4 3 5 1
5 5 6 1
6 8 9 1
7 9 10 1
8 10 11 1
9 11 12 ar
10 11 16 ar
11 12 13 ar
12 13 14 ar
13 14 15 ar
14 15 16 ar
15 16 17 ar
16 8 17 1
17 17 18 ar
18 18 19 ar
19 7 19 1
20 15 20 ar
21 19 20 ar
22 20 21 1
23 21 22 ar
24 21 23 ar
25 22 27 ar
26 23 24 ar
27 24 25 1
28 24 26 ar
29 26 27 ar
30 27 28 1
31 28 29 1
32 29 30 1
33 30 31 1
34 31 32 1
35 32 33 2
36 32 34 1
@<TRIPOS>SUBSTRUCTURE
1	GOL301	1	GROUP	1 A	GOL
2	WHA302	7	GROUP	1 A	WHA
