# created with PyMOL 3.1.3.1
@<TRIPOS>MOLECULE
3R4N_A
23 24 1                 
SMALL
USER_CHARGES
@<TRIPOS>ATOM
1	CL10	-1.841	-13.992	-24.838	Cl	1	FU5901	0.000	
2	  C1	-2.211	-11.223	-25.003	C.2	1	FU5901	0.000	
3	  C2	-0.821	-11.049	-24.453	C.2	1	FU5901	0.000	
4	  C3	-3.011	-10.061	-25.339	C.2	1	FU5901	0.000	
5	  C4	-2.750	-12.548	-25.199	C.2	1	FU5901	0.000	
6	  C5	-0.681	-10.507	-23.181	C.2	1	FU5901	0.000	
7	  N6	0.284	-11.412	-25.206	N.2	1	FU5901	0.000	
8	  C7	-4.348	-10.246	-25.855	C.2	1	FU5901	0.000	
9	  O8	-2.418	-8.826	-25.135	O.3	1	FU5901	0.000	
10	  C9	-4.078	-12.694	-25.712	C.2	1	FU5901	0.000	
11	 C11	0.587	-10.353	-22.712	C.2	1	FU5901	0.000	
12	 C12	1.516	-11.232	-24.677	C.2	1	FU5901	0.000	
13	 C13	-4.874	-11.554	-26.035	C.2	1	FU5901	0.000	
14	 C14	-2.951	-7.633	-25.371	C.3	1	FU5901	0.000	
15	 N15	1.686	-10.709	-23.445	N.2	1	FU5901	0.000	
16	 C16	0.796	-9.758	-21.328	C.3	1	FU5901	0.000	
17	 N17	2.642	-11.590	-25.423	N.pl3	1	FU5901	0.000	
18	 C18	-1.971	-6.513	-25.016	C.3	1	FU5901	0.000	
19	 C19	-1.438	-6.730	-23.587	C.3	1	FU5901	0.000	
20	 C20	-0.426	-5.681	-23.130	C.3	1	FU5901	0.000	
21	 F21	-0.936	-4.408	-23.268	 F	1	FU5901	0.000	
22	 F22	-0.105	-5.885	-21.802	 F	1	FU5901	0.000	
23	 F23	0.729	-5.771	-23.871	 F	1	FU5901	0.000	
@<TRIPOS>BOND
1 2 3 1
2 2 4 ar
3 2 5 ar
4 3 6 ar
5 3 7 ar
6 4 8 ar
7 4 9 1
8 1 5 1
9 5 10 ar
10 6 11 ar
11 7 12 ar
12 8 13 ar
13 9 14 1
14 10 13 ar
15 11 15 ar
16 11 16 1
17 12 15 ar
18 12 17 1
19 14 18 1
20 18 19 1
21 19 20 1
22 20 21 1
23 20 22 1
24 20 23 1
@<TRIPOS>SUBSTRUCTURE
1	FU5901	1	GROUP	1 A	FU5
