# created with PyMOL 3.1.3.1
@<TRIPOS>MOLECULE
3O0I_A
29 33 1                 
SMALL
USER_CHARGES
@<TRIPOS>ATOM
1	  C1	-0.038	-10.753	-24.503	C.2	1	P54237	0.000	
2	  C2	-0.877	-10.113	-23.594	C.2	1	P54237	0.000	
3	  C3	1.312	-10.850	-24.178	C.2	1	P54237	0.000	
4	  N4	-0.423	-9.596	-22.438	N.2	1	P54237	0.000	
5	  N5	1.733	-10.332	-23.000	N.2	1	P54237	0.000	
6	  C6	0.886	-9.721	-22.152	C.2	1	P54237	0.000	
7	  N7	-0.791	-11.153	-25.556	N.pl3	1	P54237	0.000	
8	  C8	-2.031	-10.729	-25.233	C.2	1	P54237	0.000	
9	  N9	-2.146	-10.094	-24.056	N.2	1	P54237	0.000	
10	 S10	-3.417	-11.016	-26.263	S.3	1	P54237	0.000	
11	 N11	2.197	-11.457	-25.010	N.pl3	1	P54237	0.000	
12	 C12	-1.315	-8.914	-21.484	C.3	1	P54237	0.000	
13	 C13	-1.617	-7.477	-21.915	C.3	1	P54237	0.000	
14	 C14	-0.364	-6.632	-22.148	C.3	1	P54237	0.000	
15	 C15	-0.235	-6.302	-23.619	C.3	1	P54237	0.000	
16	 C16	0.460	-7.063	-24.448	C.3	1	P54237	0.000	
17	 C17	-4.357	-12.203	-25.457	C.2	1	P54237	0.000	
18	 C18	-3.795	-13.364	-24.893	C.2	1	P54237	0.000	
19	 C18	-5.738	-12.015	-25.355	C.2	1	P54237	0.000	
20	 C19	-4.606	-14.303	-24.253	C.2	1	P54237	0.000	
21	 C19	-6.539	-12.957	-24.709	C.2	1	P54237	0.000	
22	 C20	-5.975	-14.100	-24.157	C.2	1	P54237	0.000	
23	 C21	-5.738	-12.015	-25.355	C.2	1	P54237	0.000	
24	 C21	-3.795	-13.364	-24.893	C.2	1	P54237	0.000	
25	 C22	-6.539	-12.957	-24.709	C.2	1	P54237	0.000	
26	 C22	-4.606	-14.303	-24.253	C.2	1	P54237	0.000	
27	 C23	-6.414	-10.799	-25.929	C.3	1	P54237	0.000	
28	 C23	-2.324	-13.698	-24.943	C.3	1	P54237	0.000	
29	 C24	-6.844	-15.114	-23.460	C.3	1	P54237	0.000	
@<TRIPOS>BOND
1 1 2 ar
2 1 3 ar
3 1 7 ar
4 2 4 ar
5 2 9 ar
6 3 5 ar
7 3 11 1
8 4 6 ar
9 4 12 1
10 5 6 ar
11 7 8 ar
12 8 9 ar
13 8 10 1
14 10 17 1
15 12 13 1
16 13 14 1
17 14 15 1
18 15 16 1
19 17 18 ar
20 17 19 ar
21 17 23 ar
22 17 24 ar
23 18 20 ar
24 19 21 ar
25 20 22 ar
26 21 22 ar
27 22 25 ar
28 22 26 ar
29 22 29 1
30 23 25 ar
31 23 27 1
32 24 26 ar
33 24 28 1
@<TRIPOS>SUBSTRUCTURE
1	P54237	1	GROUP	1 A	P54
