# created with PyMOL 3.1.3.1
@<TRIPOS>MOLECULE
3RKZ_A
36 39 1                 
SMALL
USER_CHARGES
@<TRIPOS>ATOM
1	  C1	-7.230	-9.590	-26.167	C.3	1	06T1	0.000	
2	  N1	-3.980	-11.129	-25.277	N.2	1	06T1	0.000	
3	  O1	-8.414	-12.268	-25.331	O.2	1	06T1	0.000	
4	  C2	-6.048	-10.428	-25.761	C.2	1	06T1	0.000	
5	  N2	-0.199	-9.278	-23.034	N.pl3	1	06T1	0.000	
6	  O2	-4.696	-5.663	-26.558	O.2	1	06T1	0.000	
7	  C3	-4.729	-10.031	-25.695	C.2	1	06T1	0.000	
8	  N3	-3.588	-6.496	-24.757	N.pl3	1	06T1	0.000	
9	  O3	2.143	-10.651	-23.255	O.2	1	06T1	0.000	
10	  C4	-4.832	-12.199	-25.090	C.2	1	06T1	0.000	
11	  N4	-3.221	-3.610	-27.003	N.3	1	06T1	0.000	
12	  C5	-6.117	-11.782	-25.381	C.2	1	06T1	0.000	
13	  N5	2.431	-11.758	-25.193	N.pl3	1	06T1	0.000	
14	  C6	-7.261	-12.688	-25.249	C.2	1	06T1	0.000	
15	  C7	-6.975	-14.085	-24.704	C.3	1	06T1	0.000	
16	  C8	-5.670	-14.190	-23.885	C.3	1	06T1	0.000	
17	  C9	-4.466	-13.580	-24.632	C.3	1	06T1	0.000	
18	 C10	-5.874	-13.457	-22.541	C.3	1	06T1	0.000	
19	 C11	-5.377	-15.660	-23.577	C.3	1	06T1	0.000	
20	 C12	-2.580	-11.204	-25.055	C.2	1	06T1	0.000	
21	 C13	-1.760	-12.120	-25.702	C.2	1	06T1	0.000	
22	 C14	-0.383	-12.083	-25.457	C.2	1	06T1	0.000	
23	 C15	0.174	-11.144	-24.566	C.2	1	06T1	0.000	
24	 C16	-0.660	-10.226	-23.921	C.2	1	06T1	0.000	
25	 C17	-2.051	-10.295	-24.156	C.2	1	06T1	0.000	
26	 C18	-0.943	-8.079	-22.704	C.3	1	06T1	0.000	
27	 C19	-1.354	-7.281	-23.974	C.3	1	06T1	0.000	
28	 C20	-2.560	-6.354	-23.706	C.3	1	06T1	0.000	
29	 C21	-4.349	-7.758	-24.784	C.3	1	06T1	0.000	
30	 C22	-4.131	-8.680	-25.991	C.3	1	06T1	0.000	
31	 C23	-3.842	-5.516	-25.673	C.2	1	06T1	0.000	
32	 C24	-3.072	-4.209	-25.635	C.3	1	06T1	0.000	
33	 C25	-3.721	-3.267	-24.640	C.3	1	06T1	0.000	
34	 C26	-0.194	-6.524	-24.615	C.3	1	06T1	0.000	
35	 C27	-0.163	-7.296	-21.640	C.3	1	06T1	0.000	
36	 C28	1.653	-11.143	-24.285	C.2	1	06T1	0.000	
@<TRIPOS>BOND
1 1 4 1
2 2 10 ar
3 2 20 1
4 4 7 ar
5 4 12 ar
6 5 26 1
7 2 7 ar
8 7 30 1
9 8 29 1
10 8 31 1
11 10 12 ar
12 10 17 1
13 12 14 1
14 3 14 2
15 14 15 1
16 15 16 1
17 16 17 1
18 16 18 1
19 16 19 1
20 20 21 ar
21 20 25 ar
22 21 22 ar
23 22 23 ar
24 23 24 ar
25 23 36 1
26 5 24 1
27 24 25 ar
28 26 27 1
29 26 35 1
30 27 28 1
31 27 34 1
32 8 28 1
33 29 30 1
34 6 31 2
35 31 32 1
36 11 32 1
37 32 33 1
38 9 36 2
39 13 36 1
@<TRIPOS>SUBSTRUCTURE
1	06T1	1	GROUP	1 A	06T
