# created with PyMOL 3.1.3.1
@<TRIPOS>MOLECULE
4NH7_B
45 46 3                 
SMALL
USER_CHARGES
@<TRIPOS>ATOM
1	  C1	-0.495	-12.383	-25.436	C.2	1	E0G301	0.000	
2	  N1	2.337	-11.990	-25.295	N.pl3	1	E0G301	0.000	
3	  O1	-8.466	-12.618	-25.107	O.2	1	E0G301	0.000	
4	  C2	-1.843	-12.398	-25.722	C.2	1	E0G301	0.000	
5	  N2	-0.192	-9.143	-23.721	N.pl3	1	E0G301	0.000	
6	  O2	1.974	-10.806	-23.441	O.2	1	E0G301	0.000	
7	  C3	-2.651	-11.354	-25.307	C.2	1	E0G301	0.000	
8	  N3	-4.066	-11.453	-25.406	N.2	1	E0G301	0.000	
9	  O3	-1.734	-4.633	-20.707	O.3	1	E0G301	0.000	
10	  C4	-2.101	-10.255	-24.656	C.2	1	E0G301	0.000	
11	  N4	-4.801	-10.361	-25.847	N.2	1	E0G301	0.000	
12	  C5	-0.734	-10.219	-24.375	C.2	1	E0G301	0.000	
13	  C6	0.081	-11.307	-24.758	C.2	1	E0G301	0.000	
14	  C7	1.546	-11.364	-24.451	C.2	1	E0G301	0.000	
15	  C8	-0.858	-7.936	-23.236	C.3	1	E0G301	0.000	
16	  C9	0.155	-6.807	-23.122	C.3	1	E0G301	0.000	
17	 C10	-0.465	-5.543	-22.519	C.3	1	E0G301	0.000	
18	 C11	-1.084	-5.820	-21.160	C.3	1	E0G301	0.000	
19	 C12	-2.098	-6.944	-21.228	C.3	1	E0G301	0.000	
20	 C13	-1.514	-8.212	-21.885	C.3	1	E0G301	0.000	
21	 C14	-6.053	-10.759	-25.782	C.2	1	E0G301	0.000	
22	 C15	-6.166	-12.085	-25.316	C.2	1	E0G301	0.000	
23	 C16	-4.865	-12.492	-25.076	C.2	1	E0G301	0.000	
24	 C17	-4.518	-13.840	-24.517	C.3	1	E0G301	0.000	
25	 C18	-5.662	-14.509	-23.755	C.3	1	E0G301	0.000	
26	 C19	-6.939	-14.391	-24.595	C.3	1	E0G301	0.000	
27	 C20	-7.291	-12.984	-25.032	C.2	1	E0G301	0.000	
28	 C21	-5.869	-13.827	-22.398	C.3	1	E0G301	0.000	
29	 C22	-5.315	-15.977	-23.523	C.3	1	E0G301	0.000	
30	 C23	-7.133	-9.827	-26.233	C.3	1	E0G301	0.000	
31	  F1	-6.674	-8.605	-26.542	 F	1	E0G301	0.000	
32	  F2	-7.749	-10.272	-27.287	 F	1	E0G301	0.000	
33	  F3	-8.053	-9.689	-25.315	 F	1	E0G301	0.000	
34	  C1	-10.181	-15.225	-23.052	C.3	2	GOL302	0.000	
35	  O1	-9.275	-15.813	-22.109	O.3	2	GOL302	0.000	
36	  C2	-11.564	-15.016	-22.475	C.3	2	GOL302	0.000	
37	  O2	-11.467	-14.426	-21.180	O.3	2	GOL302	0.000	
38	  C3	-12.456	-14.161	-23.345	C.3	2	GOL302	0.000	
39	  O3	-13.837	-14.344	-23.006	O.3	2	GOL302	0.000	
40	  C1	-3.440	-4.273	-27.730	C.3	3	GOL303	0.000	
41	  O1	-4.763	-3.842	-28.035	O.3	3	GOL303	0.000	
42	  C2	-3.400	-5.717	-27.287	C.3	3	GOL303	0.000	
43	  O2	-4.303	-5.891	-26.206	O.3	3	GOL303	0.000	
44	  C3	-2.012	-6.133	-26.849	C.3	3	GOL303	0.000	
45	  O3	-1.199	-6.436	-27.973	O.3	3	GOL303	0.000	
@<TRIPOS>BOND
1 2 14 1
2 3 27 2
3 1 4 ar
4 4 7 ar
5 6 14 2
6 7 10 ar
7 7 8 1
8 8 11 ar
9 8 23 ar
10 11 21 ar
11 5 12 1
12 10 12 ar
13 12 13 ar
14 1 13 ar
15 13 14 1
16 5 15 1
17 15 16 1
18 15 20 1
19 16 17 1
20 17 18 1
21 9 18 1
22 18 19 1
23 19 20 1
24 21 22 ar
25 21 30 1
26 22 23 ar
27 22 27 1
28 23 24 1
29 24 25 1
30 25 29 1
31 25 26 1
32 26 27 1
33 25 28 1
34 30 31 1
35 30 32 1
36 30 33 1
37 34 35 1
38 34 36 1
39 36 37 1
40 36 38 1
41 38 39 1
42 40 41 1
43 40 42 1
44 42 43 1
45 42 44 1
46 44 45 1
@<TRIPOS>SUBSTRUCTURE
1	E0G301	1	GROUP	1 B	E0G
2	GOL302	34	GROUP	1 B	GOL
3	GOL303	40	GROUP	1 B	GOL
