# created with PyMOL 3.1.3.1
@<TRIPOS>MOLECULE
2FWZ_A
28 31 1                 
SMALL
USER_CHARGES
@<TRIPOS>ATOM
1	 C6'	-3.669	-13.128	-25.017	C.2	1	H711001	0.000	
2	 C5'	-4.369	-14.130	-24.367	C.2	1	H711001	0.000	
3	 C4'	-5.756	-14.031	-24.222	C.2	1	H711001	0.000	
4	 C3'	-6.425	-12.922	-24.726	C.2	1	H711001	0.000	
5	 O3'	-3.985	-15.309	-23.808	O.3	1	H711001	0.000	
6	 C2'	-5.726	-11.917	-25.374	C.2	1	H711001	0.000	
7	 C1'	-4.335	-12.023	-25.524	C.2	1	H711001	0.000	
8	 O1'	-6.184	-15.157	-23.592	O.3	1	H711001	0.000	
9	  N1	1.709	-10.388	-22.997	N.2	1	H711001	0.000	
10	  C2	0.907	-9.751	-22.163	C.2	1	H711001	0.000	
11	  N3	-0.372	-9.565	-22.438	N.2	1	H711001	0.000	
12	  C4	-0.892	-10.022	-23.583	C.2	1	H711001	0.000	
13	  C5	-0.087	-10.693	-24.487	C.2	1	H711001	0.000	
14	  C6	1.251	-10.870	-24.163	C.2	1	H711001	0.000	
15	  N6	2.079	-11.493	-24.997	N.pl3	1	H711001	0.000	
16	  N7	-0.831	-11.035	-25.545	N.2	1	H711001	0.000	
17	  C8	-2.061	-10.589	-25.306	C.2	1	H711001	0.000	
18	  N9	-2.109	-9.983	-24.134	N.2	1	H711001	0.000	
19	 C91	-3.325	-9.412	-23.531	C.3	1	H711001	0.000	
20	 C92	-3.457	-7.926	-23.869	C.3	1	H711001	0.000	
21	 C93	-2.394	-7.119	-23.122	C.3	1	H711001	0.000	
22	 N94	-2.598	-5.681	-23.345	N.3	1	H711001	0.000	
23	 C95	-1.800	-4.907	-22.383	C.3	1	H711001	0.000	
24	 C96	-2.315	-5.158	-20.966	C.3	1	H711001	0.000	
25	 C97	-0.324	-5.298	-22.502	C.3	1	H711001	0.000	
26	 C'2	-5.166	-16.111	-23.928	C.3	1	H711001	0.000	
27	   I	-6.751	-10.227	-26.103	 I	1	H711001	0.000	
28	   S	-3.441	-10.785	-26.372	S.3	1	H711001	0.000	
@<TRIPOS>BOND
1 1 2 ar
2 2 3 ar
3 2 5 1
4 3 4 ar
5 4 6 ar
6 5 26 1
7 6 27 1
8 1 7 ar
9 6 7 ar
10 3 8 1
11 9 14 ar
12 9 10 ar
13 10 11 ar
14 11 12 ar
15 12 13 ar
16 13 16 ar
17 13 14 ar
18 14 15 1
19 16 17 ar
20 17 28 1
21 12 18 ar
22 17 18 ar
23 18 19 1
24 19 20 1
25 20 21 1
26 21 22 1
27 22 23 1
28 23 25 1
29 23 24 1
30 8 26 1
31 7 28 1
@<TRIPOS>SUBSTRUCTURE
1	H711001	1	GROUP	1 A	H71
