# created with PyMOL 3.1.3.1
@<TRIPOS>MOLECULE
3R4P_A
34 37 1                 
SMALL
USER_CHARGES
@<TRIPOS>ATOM
1	 CL1	-1.884	-13.966	-24.830	Cl	1	FU7901	0.000	
2	 CL2	-6.603	-11.960	-26.499	Cl	1	FU7901	0.000	
3	  C1	-2.244	-11.245	-25.299	C.2	1	FU7901	0.000	
4	  N1	-1.059	-9.260	-21.452	N.2	1	FU7901	0.000	
5	  O1	-2.979	-8.502	-20.419	O.2	1	FU7901	0.000	
6	  C2	-3.086	-10.138	-25.723	C.2	1	FU7901	0.000	
7	  N2	1.620	-10.633	-23.548	N.2	1	FU7901	0.000	
8	  O2	-2.459	-8.901	-25.733	O.3	1	FU7901	0.000	
9	  C3	-4.442	-10.378	-26.099	C.2	1	FU7901	0.000	
10	  N3	0.220	-11.478	-25.376	N.2	1	FU7901	0.000	
11	  C4	-4.960	-11.690	-26.069	C.2	1	FU7901	0.000	
12	  N4	2.584	-11.715	-25.424	N.pl3	1	FU7901	0.000	
13	  C5	-4.151	-12.785	-25.689	C.2	1	FU7901	0.000	
14	  N5	-0.954	-8.157	-19.367	N.pl3	1	FU7901	0.000	
15	  C6	-2.802	-12.571	-25.316	C.2	1	FU7901	0.000	
16	  N6	-1.466	-6.391	-24.863	N.2	1	FU7901	0.000	
17	  C7	-0.783	-10.368	-23.477	C.2	1	FU7901	0.000	
18	  N7	-2.089	-5.911	-23.771	N.2	1	FU7901	0.000	
19	  C8	-1.815	-9.791	-22.578	C.2	1	FU7901	0.000	
20	  C9	0.398	-9.489	-21.613	C.2	1	FU7901	0.000	
21	 C10	0.485	-10.205	-22.944	C.2	1	FU7901	0.000	
22	 C11	1.452	-11.265	-24.769	C.2	1	FU7901	0.000	
23	 C12	-0.889	-11.027	-24.722	C.2	1	FU7901	0.000	
24	 C13	-1.743	-8.630	-20.410	C.2	1	FU7901	0.000	
25	 C14	-3.170	-7.724	-26.139	C.3	1	FU7901	0.000	
26	 C15	-2.201	-6.545	-26.100	C.3	1	FU7901	0.000	
27	 C16	-0.145	-6.681	-24.662	C.2	1	FU7901	0.000	
28	 C17	0.108	-6.371	-23.353	C.2	1	FU7901	0.000	
29	 C18	-1.122	-5.903	-22.852	C.2	1	FU7901	0.000	
30	 C19	-1.546	-7.480	-18.211	C.3	1	FU7901	0.000	
31	 C20	-1.393	-5.977	-18.309	C.3	1	FU7901	0.000	
32	 C21	-2.012	-5.249	-17.136	C.3	1	FU7901	0.000	
33	  F1	-1.981	-5.536	-19.449	 F	1	FU7901	0.000	
34	  F2	-0.083	-5.653	-18.387	 F	1	FU7901	0.000	
@<TRIPOS>BOND
1 1 15 1
2 2 11 1
3 3 6 ar
4 3 15 ar
5 3 23 1
6 4 19 ar
7 4 20 ar
8 4 24 1
9 5 24 2
10 6 8 1
11 6 9 ar
12 7 21 ar
13 7 22 ar
14 8 25 1
15 9 11 ar
16 10 22 ar
17 10 23 ar
18 11 13 ar
19 12 22 1
20 13 15 ar
21 14 24 1
22 14 30 1
23 16 18 ar
24 16 26 1
25 16 27 ar
26 17 19 ar
27 17 21 ar
28 17 23 ar
29 18 29 ar
30 20 21 ar
31 25 26 1
32 27 28 ar
33 28 29 ar
34 30 31 1
35 31 32 1
36 31 33 1
37 31 34 1
@<TRIPOS>SUBSTRUCTURE
1	FU7901	1	GROUP	1 A	FU7
