# created with PyMOL 3.1.3.1
@<TRIPOS>MOLECULE
3B28_B
23 26 1                 
SMALL
USER_CHARGES
@<TRIPOS>ATOM
1	CL13	-1.897	-13.721	-24.915	Cl	1	B2X2	0.000	
2	  C1	-6.393	-11.636	-26.263	C.3	1	B2X2	0.000	
3	  O2	-6.924	-10.494	-27.040	O.3	1	B2X2	0.000	
4	  C3	-6.800	-9.341	-26.197	C.3	1	B2X2	0.000	
5	  C4	-5.491	-9.062	-25.747	C.2	1	B2X2	0.000	
6	  C5	-5.044	-7.753	-25.556	C.2	1	B2X2	0.000	
7	  C6	-3.715	-7.541	-25.156	C.2	1	B2X2	0.000	
8	  C7	-2.825	-8.590	-24.986	C.2	1	B2X2	0.000	
9	  C8	-3.264	-9.905	-25.173	C.2	1	B2X2	0.000	
10	  C9	-4.596	-10.138	-25.587	C.2	1	B2X2	0.000	
11	 C10	-5.036	-11.444	-25.840	C.2	1	B2X2	0.000	
12	 C11	-4.146	-12.494	-25.653	C.2	1	B2X2	0.000	
13	 C12	-2.841	-12.286	-25.202	C.2	1	B2X2	0.000	
14	 C14	-2.357	-10.972	-25.001	C.2	1	B2X2	0.000	
15	 C15	-1.031	-10.803	-24.508	C.2	1	B2X2	0.000	
16	 N16	-0.823	-10.269	-23.280	N.2	1	B2X2	0.000	
17	 N17	0.036	-11.250	-25.231	N.2	1	B2X2	0.000	
18	 C18	1.276	-11.156	-24.715	C.2	1	B2X2	0.000	
19	 N19	2.302	-11.625	-25.443	N.pl3	1	B2X2	0.000	
20	 N22	1.509	-10.630	-23.493	N.2	1	B2X2	0.000	
21	 C23	0.442	-10.171	-22.822	C.2	1	B2X2	0.000	
22	 S24	0.760	-9.483	-21.290	S.3	1	B2X2	0.000	
23	 C25	-0.777	-8.655	-20.915	C.3	1	B2X2	0.000	
@<TRIPOS>BOND
1 2 3 1
2 2 11 1
3 3 4 1
4 4 5 1
5 5 6 ar
6 5 10 ar
7 6 7 ar
8 7 8 ar
9 8 9 ar
10 9 10 ar
11 9 14 ar
12 10 11 ar
13 11 12 ar
14 12 13 ar
15 1 13 1
16 13 14 ar
17 14 15 1
18 15 16 ar
19 15 17 ar
20 16 21 ar
21 17 18 ar
22 18 19 1
23 18 20 ar
24 20 21 ar
25 21 22 1
26 22 23 1
@<TRIPOS>SUBSTRUCTURE
1	B2X2	1	GROUP	1 B	B2X
