# created with PyMOL 3.1.3.1
@<TRIPOS>MOLECULE
1UY8_A
23 25 1                 
SMALL
USER_CHARGES
@<TRIPOS>ATOM
1	  C1	-5.465	-11.817	-25.771	C.2	1	PU51224	0.000	
2	  N1	-0.720	-11.238	-25.592	N.2	1	PU51224	0.000	
3	  O1	-3.835	-15.124	-23.898	O.3	1	PU51224	0.000	
4	  C2	-6.309	-12.778	-25.235	C.2	1	PU51224	0.000	
5	  N2	-2.004	-10.089	-24.209	N.2	1	PU51224	0.000	
6	  C3	-5.767	-13.881	-24.606	C.2	1	PU51224	0.000	
7	  N3	1.863	-10.435	-23.064	N.2	1	PU51224	0.000	
8	  C4	-4.390	-14.046	-24.534	C.2	1	PU51224	0.000	
9	  N4	-0.305	-9.605	-22.521	N.2	1	PU51224	0.000	
10	  C5	-3.531	-13.093	-25.029	C.2	1	PU51224	0.000	
11	  N5	2.242	-11.586	-25.088	N.pl3	1	PU51224	0.000	
12	  C6	-4.075	-11.984	-25.646	C.2	1	PU51224	0.000	
13	  C7	-4.567	-16.318	-23.598	C.3	1	PU51224	0.000	
14	  C9	-3.151	-10.951	-26.249	C.3	1	PU51224	0.000	
15	 C10	-1.951	-10.738	-25.362	C.2	1	PU51224	0.000	
16	 C11	0.042	-10.837	-24.583	C.2	1	PU51224	0.000	
17	 C12	-0.806	-10.086	-23.662	C.2	1	PU51224	0.000	
18	 C13	1.436	-10.945	-24.242	C.2	1	PU51224	0.000	
19	 C14	1.011	-9.751	-22.266	C.2	1	PU51224	0.000	
20	 C15	-3.200	-9.481	-23.603	C.3	1	PU51224	0.000	
21	 C16	-3.174	-7.984	-23.904	C.3	1	PU51224	0.000	
22	 C17	-3.503	-7.571	-25.144	C.3	1	PU51224	0.000	
23	 C18	-4.964	-7.451	-25.603	C.3	1	PU51224	0.000	
@<TRIPOS>BOND
1 1 4 ar
2 1 12 ar
3 2 15 ar
4 3 13 1
5 4 6 ar
6 5 15 ar
7 5 17 ar
8 6 8 ar
9 7 18 ar
10 3 8 1
11 9 19 ar
12 8 10 ar
13 10 12 ar
14 12 14 1
15 14 15 1
16 2 16 ar
17 16 18 ar
18 9 17 ar
19 16 17 ar
20 11 18 1
21 7 19 ar
22 5 20 1
23 20 21 1
24 21 22 1
25 22 23 1
@<TRIPOS>SUBSTRUCTURE
1	PU51224	1	GROUP	1 A	PU5
