# created with PyMOL 3.1.3.1
@<TRIPOS>MOLECULE
2QG2_A
24 26 1                 
SMALL
USER_CHARGES
@<TRIPOS>ATOM
1	  C1	-4.587	-16.220	-23.331	C.2	1	A91300	0.000	
2	  C2	-4.471	-15.108	-24.376	C.2	1	A91300	0.000	
3	  N3	-5.730	-14.402	-24.189	N.2	1	A91300	0.000	
4	  C4	-6.541	-14.992	-23.269	C.2	1	A91300	0.000	
5	  O5	-5.871	-15.976	-22.659	O.2	1	A91300	0.000	
6	  O6	-7.681	-14.699	-23.009	O.co2	1	A91300	0.000	
7	  N7	-6.177	-13.248	-24.777	N.2	1	A91300	0.000	
8	  C8	-5.293	-12.427	-25.253	C.2	1	A91300	0.000	
9	  C9	-5.651	-11.144	-25.867	C.2	1	A91300	0.000	
10	 C10	-4.678	-10.056	-26.014	C.2	1	A91300	0.000	
11	 C11	-5.059	-8.805	-26.611	C.2	1	A91300	0.000	
12	 C12	-6.405	-8.623	-27.066	C.2	1	A91300	0.000	
13	 C13	-7.375	-9.683	-26.931	C.2	1	A91300	0.000	
14	 C14	-7.000	-10.937	-26.334	C.2	1	A91300	0.000	
15	 C15	-3.314	-10.191	-25.572	C.3	1	A91300	0.000	
16	 C16	-2.213	-10.315	-25.175	C.3	1	A91300	0.000	
17	 C17	-0.905	-10.395	-24.649	C.2	1	A91300	0.000	
18	 C18	-0.736	-9.817	-23.381	C.2	1	A91300	0.000	
19	 C19	0.568	-9.889	-22.857	C.2	1	A91300	0.000	
20	 N20	1.624	-10.475	-23.516	N.2	1	A91300	0.000	
21	 C21	1.346	-11.006	-24.748	C.2	1	A91300	0.000	
22	 N22	0.125	-10.994	-25.346	N.2	1	A91300	0.000	
23	 C23	0.843	-9.299	-21.512	C.3	1	A91300	0.000	
24	 N24	2.329	-11.570	-25.408	N.pl3	1	A91300	0.000	
@<TRIPOS>BOND
1 1 2 ar
2 1 5 ar
3 2 3 ar
4 3 4 ar
5 3 7 1
6 4 5 ar
7 4 6 2
8 7 8 2
9 8 9 1
10 9 10 ar
11 9 14 ar
12 10 11 ar
13 10 15 1
14 11 12 ar
15 12 13 ar
16 13 14 ar
17 15 16 1
18 16 17 1
19 17 18 ar
20 17 22 ar
21 18 19 ar
22 19 20 ar
23 19 23 1
24 20 21 ar
25 21 22 ar
26 21 24 1
@<TRIPOS>SUBSTRUCTURE
1	A91300	1	GROUP	1 A	A91
