# created with PyMOL 3.1.3.1
@<TRIPOS>MOLECULE
2WI6_A
23 25 1                 
SMALL
USER_CHARGES
@<TRIPOS>ATOM
1	 CL1	-6.592	-11.817	-26.830	Cl	1	ZZ61224	0.000	
2	 CL2	-1.896	-13.879	-24.796	Cl	1	ZZ61224	0.000	
3	  N1	0.033	-11.382	-25.037	N.2	1	ZZ61224	0.000	
4	  C2	-1.069	-10.847	-24.460	C.2	1	ZZ61224	0.000	
5	  N3	1.521	-10.446	-23.435	N.2	1	ZZ61224	0.000	
6	  C4	1.285	-11.191	-24.545	C.2	1	ZZ61224	0.000	
7	  C5	0.483	-9.870	-22.788	C.2	1	ZZ61224	0.000	
8	  C6	-0.909	-10.017	-23.241	C.2	1	ZZ61224	0.000	
9	  C7	-1.861	-9.316	-22.399	C.2	1	ZZ61224	0.000	
10	  C8	-1.182	-8.668	-21.352	C.2	1	ZZ61224	0.000	
11	  S9	0.545	-8.918	-21.410	S.2	1	ZZ61224	0.000	
12	 N10	2.334	-11.762	-25.183	N.pl3	1	ZZ61224	0.000	
13	 C11	-2.418	-11.087	-25.039	C.2	1	ZZ61224	0.000	
14	 C12	-1.650	-7.823	-20.218	C.2	1	ZZ61224	0.000	
15	 O13	-2.816	-7.470	-20.176	O.2	1	ZZ61224	0.000	
16	 N14	-0.777	-7.473	-19.277	N.pl3	1	ZZ61224	0.000	
17	 C15	-1.123	-6.524	-18.237	C.3	1	ZZ61224	0.000	
18	 C16	-1.181	-7.174	-16.873	C.3	1	ZZ61224	0.000	
19	 C17	-3.232	-10.021	-25.396	C.2	1	ZZ61224	0.000	
20	 C18	-4.492	-10.262	-25.937	C.2	1	ZZ61224	0.000	
21	 C19	-4.960	-11.559	-26.130	C.2	1	ZZ61224	0.000	
22	 C20	-4.179	-12.659	-25.787	C.2	1	ZZ61224	0.000	
23	 C21	-2.915	-12.470	-25.244	C.2	1	ZZ61224	0.000	
@<TRIPOS>BOND
1 2 23 1
2 3 6 ar
3 3 4 ar
4 4 8 ar
5 5 7 ar
6 5 6 ar
7 6 12 1
8 7 8 ar
9 7 11 ar
10 8 9 ar
11 9 10 ar
12 10 14 1
13 10 11 ar
14 4 13 1
15 14 15 2
16 14 16 1
17 16 17 1
18 17 18 1
19 13 19 ar
20 19 20 ar
21 1 21 1
22 20 21 ar
23 21 22 ar
24 13 23 ar
25 22 23 ar
@<TRIPOS>SUBSTRUCTURE
1	ZZ61224	1	GROUP	1 A	ZZ6
