# created with PyMOL 3.1.3.1
@<TRIPOS>MOLECULE
3VHD_A
27 29 1                 
SMALL
USER_CHARGES
@<TRIPOS>ATOM
1	  C1	-2.006	-11.303	-25.019	C.2	1	VHE1	0.000	
2	  C2	-2.544	-12.549	-25.375	C.2	1	VHE1	0.000	
3	  C3	-3.911	-12.571	-25.797	C.2	1	VHE1	0.000	
4	  C4	-4.716	-11.410	-25.860	C.2	1	VHE1	0.000	
5	  C5	-4.152	-10.192	-25.467	C.2	1	VHE1	0.000	
6	  C6	-2.810	-10.124	-25.077	C.2	1	VHE1	0.000	
7	  C7	-4.839	-8.913	-25.490	C.2	1	VHE1	0.000	
8	  C8	-6.172	-11.548	-26.302	C.3	1	VHE1	0.000	
9	  O9	-5.460	-8.493	-26.510	O.2	1	VHE1	0.000	
10	 N10	-4.733	-8.175	-24.327	N.pl3	1	VHE1	0.000	
11	 C11	-1.755	-13.875	-25.306	C.3	1	VHE1	0.000	
12	 C12	-0.652	-11.116	-24.492	C.2	1	VHE1	0.000	
13	 C13	-0.495	-10.441	-23.255	C.2	1	VHE1	0.000	
14	 C14	0.813	-10.321	-22.797	C.2	1	VHE1	0.000	
15	 N15	1.881	-10.769	-23.442	N.2	1	VHE1	0.000	
16	 C16	1.641	-11.423	-24.637	C.2	1	VHE1	0.000	
17	 N17	0.399	-11.601	-25.144	N.2	1	VHE1	0.000	
18	 N18	2.713	-11.916	-25.404	N.pl3	1	VHE1	0.000	
19	 C19	-5.347	-6.807	-24.231	C.3	1	VHE1	0.000	
20	 C20	-4.677	-6.076	-23.035	C.3	1	VHE1	0.000	
21	 C21	-3.330	-5.461	-23.403	C.3	1	VHE1	0.000	
22	 N22	-2.138	-6.358	-23.306	N.pl3	1	VHE1	0.000	
23	 C23	-1.407	-6.461	-22.132	C.2	1	VHE1	0.000	
24	 C24	-0.206	-7.352	-22.160	C.3	1	VHE1	0.000	
25	 O25	-1.729	-5.829	-21.092	O.2	1	VHE1	0.000	
26	 C26	-0.220	-8.404	-21.012	C.3	1	VHE1	0.000	
27	 S27	1.224	-9.527	-21.279	S.3	1	VHE1	0.000	
@<TRIPOS>BOND
1 1 2 ar
2 1 6 ar
3 1 12 1
4 2 3 ar
5 2 11 1
6 3 4 ar
7 4 5 ar
8 4 8 1
9 5 6 ar
10 5 7 1
11 7 9 2
12 7 10 1
13 10 19 1
14 12 13 ar
15 12 17 ar
16 13 14 ar
17 14 15 ar
18 14 27 1
19 15 16 ar
20 16 17 ar
21 16 18 1
22 19 20 1
23 20 21 1
24 21 22 1
25 22 23 1
26 23 24 1
27 23 25 2
28 24 26 1
29 26 27 1
@<TRIPOS>SUBSTRUCTURE
1	VHE1	1	GROUP	1 A	VHE
