# created with PyMOL 3.1.3.1
@<TRIPOS>MOLECULE
2XDU_A
23 23 3                 
SMALL
USER_CHARGES
@<TRIPOS>ATOM
1	   O	17.561	-13.964	-26.037	O.3	1	DMS1226	0.000	
2	  C1	17.974	-16.153	-24.094	C.3	1	DMS1226	0.000	
3	  C2	18.359	-16.585	-26.844	C.3	1	DMS1226	0.000	
4	   S	17.274	-15.685	-25.704	S.O	1	DMS1226	0.000	
5	  C1	1.423	-10.951	-24.559	C.2	2	LGA1227	0.000	
6	  N1	0.166	-10.941	-25.063	N.2	2	LGA1227	0.000	
7	  N2	2.386	-11.458	-25.320	N.pl3	2	LGA1227	0.000	
8	  C3	0.799	-9.953	-22.603	C.2	2	LGA1227	0.000	
9	  C4	-0.779	-10.413	-24.286	C.2	2	LGA1227	0.000	
10	  C5	-0.494	-9.913	-23.051	C.2	2	LGA1227	0.000	
11	  N7	1.777	-10.472	-23.346	N.2	2	LGA1227	0.000	
12	 CL6	-2.119	-13.755	-24.944	Cl	3	MT01228	0.000	
13	  C1	-7.388	-11.122	-25.722	C.3	3	MT01228	0.000	
14	  C2	-6.101	-11.863	-25.472	C.2	3	MT01228	0.000	
15	  N3	-4.974	-11.299	-25.964	N.2	3	MT01228	0.000	
16	  N4	-3.773	-11.885	-25.801	N.2	3	MT01228	0.000	
17	  C5	-3.696	-13.054	-25.118	C.2	3	MT01228	0.000	
18	  C7	-4.808	-13.691	-24.579	C.2	3	MT01228	0.000	
19	  C8	-4.724	-14.896	-23.874	C.2	3	MT01228	0.000	
20	  C9	-5.849	-15.478	-23.357	C.2	3	MT01228	0.000	
21	 C10	-7.074	-14.883	-23.530	C.2	3	MT01228	0.000	
22	 C11	-7.182	-13.692	-24.219	C.2	3	MT01228	0.000	
23	 C12	-6.051	-13.083	-24.754	C.2	3	MT01228	0.000	
@<TRIPOS>BOND
1 1 4 1
2 2 4 1
3 3 4 1
4 5 6 ar
5 5 11 ar
6 6 9 ar
7 5 7 1
8 8 11 ar
9 9 10 ar
10 8 10 ar
11 13 14 1
12 14 15 ar
13 14 23 ar
14 15 16 ar
15 16 17 ar
16 12 17 1
17 17 18 ar
18 18 19 ar
19 18 23 ar
20 19 20 ar
21 20 21 ar
22 21 22 ar
23 22 23 ar
@<TRIPOS>SUBSTRUCTURE
1	DMS1226	1	GROUP	1 A	DMS
2	LGA1227	5	GROUP	1 A	LGA
3	MT01228	12	GROUP	1 A	MT0
