# created with PyMOL 3.1.3.1
@<TRIPOS>MOLECULE
4EGI_A
18 18 1                 
SMALL
USER_CHARGES
@<TRIPOS>ATOM
1	  S3	-2.423	-11.167	-24.964	S.3	1	B2J301	0.000	
2	  S3	0.877	-9.499	-21.345	S.3	1	B2J301	0.000	
3	  C4	-0.844	-10.956	-24.418	C.2	1	B2J301	0.000	
4	  C4	0.610	-10.199	-22.860	C.2	1	B2J301	0.000	
5	  N5	0.177	-11.422	-25.123	N.2	1	B2J301	0.000	
6	  N5	1.618	-10.675	-23.548	N.2	1	B2J301	0.000	
7	  N6	-0.623	-10.343	-23.261	N.2	1	B2J301	0.000	
8	  N6	-0.657	-10.379	-23.298	N.2	1	B2J301	0.000	
9	  C7	0.639	-10.146	-22.803	C.2	1	B2J301	0.000	
10	  C7	-0.910	-10.975	-24.462	C.2	1	B2J301	0.000	
11	  C8	0.873	-9.481	-21.452	C.3	1	B2J301	0.000	
12	  C8	-2.350	-11.151	-24.955	C.3	1	B2J301	0.000	
13	  N9	1.633	-10.639	-23.518	N.2	1	B2J301	0.000	
14	  N9	0.142	-11.426	-25.150	N.2	1	B2J301	0.000	
15	 C10	1.429	-11.258	-24.694	C.2	1	B2J301	0.000	
16	 C10	1.402	-11.274	-24.724	C.2	1	B2J301	0.000	
17	 N11	2.420	-11.745	-25.423	N.pl3	1	B2J301	0.000	
18	 N11	2.410	-11.744	-25.438	N.pl3	1	B2J301	0.000	
@<TRIPOS>BOND
1 1 3 1
2 2 4 1
3 3 5 ar
4 3 7 ar
5 4 6 ar
6 4 8 ar
7 5 15 ar
8 6 16 ar
9 7 9 ar
10 8 10 ar
11 9 11 1
12 9 13 ar
13 10 12 1
14 10 14 ar
15 13 15 ar
16 14 16 ar
17 15 17 1
18 16 18 1
@<TRIPOS>SUBSTRUCTURE
1	B2J301	1	GROUP	1 A	B2J
