# created with PyMOL 3.1.3.1
@<TRIPOS>MOLECULE
3QTF_A
34 36 2                 
SMALL
USER_CHARGES
@<TRIPOS>ATOM
1	  C1	-7.278	-9.644	-26.334	C.3	1	05S1	0.000	
2	  N1	-4.056	-11.180	-25.317	N.2	1	05S1	0.000	
3	  O1	-8.495	-12.293	-25.234	O.2	1	05S1	0.000	
4	  C2	-6.124	-10.473	-25.874	C.2	1	05S1	0.000	
5	  N2	-0.250	-9.259	-23.079	N.pl3	1	05S1	0.000	
6	  O2	2.020	-10.612	-23.406	O.2	1	05S1	0.000	
7	  C3	-4.781	-10.082	-25.796	C.2	1	05S1	0.000	
8	  N3	-2.111	-7.495	-24.442	N.3	1	05S1	0.000	
9	  C4	-4.926	-12.227	-25.100	C.2	1	05S1	0.000	
10	  N4	2.348	-11.679	-25.405	N.pl3	1	05S1	0.000	
11	  C5	-6.203	-11.808	-25.386	C.2	1	05S1	0.000	
12	  C6	-7.338	-12.714	-25.229	C.2	1	05S1	0.000	
13	  C7	-7.049	-14.120	-24.700	C.3	1	05S1	0.000	
14	  C8	-5.765	-14.225	-23.837	C.3	1	05S1	0.000	
15	  C9	-4.558	-13.575	-24.566	C.3	1	05S1	0.000	
16	 C10	-5.444	-15.699	-23.496	C.3	1	05S1	0.000	
17	 C11	-6.005	-13.470	-22.519	C.3	1	05S1	0.000	
18	 C12	-2.667	-11.262	-25.077	C.2	1	05S1	0.000	
19	 C13	-1.839	-12.172	-25.728	C.2	1	05S1	0.000	
20	 C14	-0.459	-12.102	-25.509	C.2	1	05S1	0.000	
21	 C15	0.093	-11.130	-24.644	C.2	1	05S1	0.000	
22	 C16	-0.745	-10.210	-23.968	C.2	1	05S1	0.000	
23	 C17	-2.123	-10.341	-24.179	C.2	1	05S1	0.000	
24	 C18	-1.045	-8.315	-22.287	C.3	1	05S1	0.000	
25	 C19	-1.503	-7.109	-23.127	C.3	1	05S1	0.000	
26	 C20	-3.271	-6.672	-24.936	C.3	1	05S1	0.000	
27	 C21	-4.445	-7.559	-25.355	C.3	1	05S1	0.000	
28	 C22	-4.151	-8.782	-26.247	C.3	1	05S1	0.000	
29	 C23	-0.165	-7.835	-21.121	C.3	1	05S1	0.000	
30	 C24	1.564	-11.108	-24.427	C.2	1	05S1	0.000	
31	   O	16.546	-16.520	-24.774	O.3	2	DMS237	0.000	
32	  C1	17.761	-16.298	-27.454	C.3	2	DMS237	0.000	
33	  C2	17.312	-13.974	-26.036	C.3	2	DMS237	0.000	
34	   S	17.809	-15.689	-25.748	S.O	2	DMS237	0.000	
@<TRIPOS>BOND
1 1 4 1
2 2 9 ar
3 2 18 1
4 4 7 ar
5 4 11 ar
6 5 24 1
7 2 7 ar
8 7 28 1
9 8 26 1
10 9 11 ar
11 9 15 1
12 11 12 1
13 3 12 2
14 12 13 1
15 13 14 1
16 14 15 1
17 14 16 1
18 14 17 1
19 18 19 ar
20 18 23 ar
21 19 20 ar
22 20 21 ar
23 21 22 ar
24 21 30 1
25 5 22 1
26 22 23 ar
27 24 25 1
28 24 29 1
29 8 25 1
30 26 27 1
31 27 28 1
32 6 30 2
33 10 30 1
34 31 34 1
35 32 34 1
36 33 34 1
@<TRIPOS>SUBSTRUCTURE
1	05S1	1	GROUP	1 A	05S
2	DMS237	31	GROUP	1 A	DMS
