# created with PyMOL 3.1.3.1
@<TRIPOS>MOLECULE
3LFN_A
28 31 1                 
SMALL
USER_CHARGES
@<TRIPOS>ATOM
1	  C1	32.300	49.546	22.575	C.2	1	A27299	0.000	
2	  C2	32.625	49.214	21.246	C.2	1	A27299	0.000	
3	  C3	33.966	49.087	20.841	C.2	1	A27299	0.000	
4	  C4	34.981	49.255	21.798	C.2	1	A27299	0.000	
5	  C5	34.665	49.578	23.121	C.2	1	A27299	0.000	
6	  C6	33.325	49.729	23.509	C.2	1	A27299	0.000	
7	 C12	34.311	48.738	19.523	C.2	1	A27299	0.000	
8	 C13	35.091	49.556	18.666	C.2	1	A27299	0.000	
9	 C14	35.441	49.080	17.398	C.2	1	A27299	0.000	
10	 C15	35.032	47.820	16.964	C.2	1	A27299	0.000	
11	 C16	34.279	47.006	17.801	C.2	1	A27299	0.000	
12	 C17	33.917	47.471	19.069	C.2	1	A27299	0.000	
13	 C20	35.548	50.831	18.993	C.2	1	A27299	0.000	
14	 C21	36.851	51.165	18.614	C.2	1	A27299	0.000	
15	 C22	37.383	52.404	18.942	C.2	1	A27299	0.000	
16	 C23	36.595	53.334	19.612	C.2	1	A27299	0.000	
17	 C24	35.285	53.017	19.972	C.2	1	A27299	0.000	
18	 C25	34.738	51.778	19.629	C.2	1	A27299	0.000	
19	 O30	37.117	54.553	19.898	O.3	1	A27299	0.000	
20	 N31	35.256	47.149	15.836	N.pl3	1	A27299	0.000	
21	 N32	34.720	46.036	15.877	N.2	1	A27299	0.000	
22	 C33	34.103	45.851	17.041	C.2	1	A27299	0.000	
23	 N34	33.493	44.686	17.313	N.pl3	1	A27299	0.000	
24	 C35	32.901	44.239	18.428	C.2	1	A27299	0.000	
25	 C36	32.373	42.808	18.304	C.3	1	A27299	0.000	
26	 C37	31.111	42.768	17.442	C.3	1	A27299	0.000	
27	 C40	30.337	41.468	17.654	C.3	1	A27299	0.000	
28	 O46	32.752	44.861	19.480	O.2	1	A27299	0.000	
@<TRIPOS>BOND
1 1 2 ar
2 1 6 ar
3 2 3 ar
4 3 4 ar
5 3 7 1
6 4 5 ar
7 5 6 ar
8 7 8 ar
9 7 12 ar
10 8 9 ar
11 8 13 1
12 9 10 ar
13 10 11 ar
14 10 20 ar
15 11 12 ar
16 11 22 ar
17 13 14 ar
18 13 18 ar
19 14 15 ar
20 15 16 ar
21 16 17 ar
22 16 19 1
23 17 18 ar
24 20 21 ar
25 21 22 ar
26 22 23 1
27 23 24 1
28 24 25 1
29 24 28 2
30 25 26 1
31 26 27 1
@<TRIPOS>SUBSTRUCTURE
1	A27299	1	GROUP	1 A	A27
