# created with PyMOL 3.1.3.1
@<TRIPOS>MOLECULE
2C5N_CD
23 25 1                 
SMALL
USER_CHARGES
@<TRIPOS>ATOM
1	 C1A	33.235	49.186	19.237	C.2	1	CK81298	0.000	
2	 C1B	32.187	44.284	18.060	C.2	1	CK81298	0.000	
3	  N1	34.438	45.821	15.789	N.2	1	CK81298	0.000	
4	  C2	33.644	45.874	16.866	C.2	1	CK81298	0.000	
5	 C2B	31.724	42.976	17.942	C.2	1	CK81298	0.000	
6	 N2A	33.227	50.333	19.915	N.2	1	CK81298	0.000	
7	 C3A	34.048	51.190	19.292	C.2	1	CK81298	0.000	
8	 C3B	30.827	42.469	18.876	C.2	1	CK81298	0.000	
9	  N3	33.557	46.983	17.588	N.2	1	CK81298	0.000	
10	  C4	34.273	48.067	17.283	C.2	1	CK81298	0.000	
11	 C4B	30.406	43.269	19.936	C.2	1	CK81298	0.000	
12	 S4A	34.899	50.682	17.911	S.2	1	CK81298	0.000	
13	  C5	35.079	48.044	16.167	C.2	1	CK81298	0.000	
14	 C5A	34.118	49.204	18.059	C.2	1	CK81298	0.000	
15	 C5B	30.872	44.572	20.042	C.2	1	CK81298	0.000	
16	  C6	35.171	46.866	15.437	C.2	1	CK81298	0.000	
17	 C6A	32.354	48.165	19.790	C.3	1	CK81298	0.000	
18	 C6B	31.764	45.084	19.106	C.2	1	CK81298	0.000	
19	 C7A	34.176	52.566	19.896	C.3	1	CK81298	0.000	
20	  N7	33.019	44.713	17.090	N.pl3	1	CK81298	0.000	
21	 N7B	29.536	42.817	20.870	N.pl3	1	CK81298	0.000	
22	 C8B	29.116	43.713	21.935	C.3	1	CK81298	0.000	
23	 C9B	29.020	41.458	20.821	C.3	1	CK81298	0.000	
@<TRIPOS>BOND
1 1 6 ar
2 1 17 1
3 2 5 ar
4 2 18 ar
5 3 4 ar
6 4 9 ar
7 4 20 1
8 5 8 ar
9 6 7 ar
10 7 12 ar
11 7 19 1
12 8 11 ar
13 9 10 ar
14 10 13 ar
15 10 14 1
16 11 15 ar
17 11 21 1
18 1 14 ar
19 12 14 ar
20 15 18 ar
21 3 16 ar
22 13 16 ar
23 2 20 1
24 21 22 1
25 21 23 1
@<TRIPOS>SUBSTRUCTURE
1	CK81298	1	GROUP	1 C	CK8
