# created with PyMOL 3.1.3.1
@<TRIPOS>MOLECULE
2VTA_A
21 20 3                 
SMALL
USER_CHARGES
@<TRIPOS>ATOM
1	  C1	40.670	39.773	8.282	C.3	1	GOL1299	0.000	
2	  O1	40.686	40.170	6.912	O.3	1	GOL1299	0.000	
3	  C2	40.313	38.290	8.348	C.3	1	GOL1299	0.000	
4	  O2	40.983	37.709	9.464	O.3	1	GOL1299	0.000	
5	  C3	38.809	38.148	8.576	C.3	1	GOL1299	0.000	
6	  O3	38.581	37.961	9.972	O.3	1	GOL1299	0.000	
7	  C1	33.644	39.327	39.438	C.3	2	GOL1300	0.000	
8	  O1	32.780	39.672	40.527	O.3	2	GOL1300	0.000	
9	  C2	34.616	38.225	39.868	C.3	2	GOL1300	0.000	
10	  O2	33.974	37.384	40.833	O.3	2	GOL1300	0.000	
11	  C3	35.037	37.375	38.663	C.3	2	GOL1300	0.000	
12	  O3	34.765	38.043	37.430	O.3	2	GOL1300	0.000	
13	   N	35.272	47.609	15.955	N.pl3	3	LZ11301	0.000	
14	  C1	34.961	48.282	17.108	C.2	3	LZ11301	0.000	
15	  C2	34.052	47.470	17.801	C.2	3	LZ11301	0.000	
16	  N2	34.614	46.422	15.879	N.2	3	LZ11301	0.000	
17	  C3	33.565	47.919	19.027	C.2	3	LZ11301	0.000	
18	  C4	33.977	49.132	19.549	C.2	3	LZ11301	0.000	
19	  C5	34.879	49.920	18.858	C.2	3	LZ11301	0.000	
20	  C6	35.375	49.497	17.641	C.2	3	LZ11301	0.000	
21	  C9	33.864	46.328	16.985	C.2	3	LZ11301	0.000	
@<TRIPOS>BOND
1 1 2 1
2 1 3 1
3 3 4 1
4 3 5 1
5 5 6 1
6 7 8 1
7 7 9 1
8 9 10 1
9 9 11 1
10 11 12 1
11 13 16 ar
12 13 14 ar
13 14 15 ar
14 14 20 ar
15 15 17 ar
16 15 21 ar
17 17 18 ar
18 18 19 ar
19 19 20 ar
20 16 21 ar
@<TRIPOS>SUBSTRUCTURE
1	GOL1299	1	GROUP	1 A	GOL
2	GOL1300	7	GROUP	1 A	GOL
3	LZ11301	13	GROUP	1 A	LZ1
