# created with PyMOL 3.1.3.1
@<TRIPOS>MOLECULE
1PXP_A
23 25 1                 
SMALL
USER_CHARGES
@<TRIPOS>ATOM
1	 C1A	35.050	50.056	19.997	C.2	1	CK8500	0.000	
2	 C1B	32.824	43.945	18.360	C.2	1	CK8500	0.000	
3	  N1	35.107	46.150	16.317	N.2	1	CK8500	0.000	
4	  C2	34.391	45.902	17.412	C.2	1	CK8500	0.000	
5	 C2B	32.492	44.453	19.656	C.2	1	CK8500	0.000	
6	 N2A	34.707	50.413	21.280	N.2	1	CK8500	0.000	
7	 C3A	34.170	49.377	21.928	C.2	1	CK8500	0.000	
8	 C3B	31.645	43.723	20.518	C.2	1	CK8500	0.000	
9	  N3	34.294	46.721	18.458	N.2	1	CK8500	0.000	
10	  C4	34.943	47.902	18.470	C.2	1	CK8500	0.000	
11	 C4B	31.095	42.454	20.117	C.2	1	CK8500	0.000	
12	 S4A	34.045	47.932	21.044	S.2	1	CK8500	0.000	
13	  C5	35.755	48.260	17.322	C.2	1	CK8500	0.000	
14	 C5A	34.769	48.712	19.655	C.2	1	CK8500	0.000	
15	 C5B	31.445	41.959	18.810	C.2	1	CK8500	0.000	
16	  C6	35.792	47.316	16.254	C.2	1	CK8500	0.000	
17	 C6A	35.679	51.137	19.125	C.3	1	CK8500	0.000	
18	 C6B	32.296	42.692	17.952	C.2	1	CK8500	0.000	
19	 C7A	33.685	49.432	23.363	C.3	1	CK8500	0.000	
20	  N7	33.688	44.651	17.425	N.pl3	1	CK8500	0.000	
21	 N7B	30.188	41.680	21.034	N.pl3	1	CK8500	0.000	
22	 C8B	29.595	40.361	20.659	C.3	1	CK8500	0.000	
23	 C9B	29.807	42.173	22.392	C.3	1	CK8500	0.000	
@<TRIPOS>BOND
1 1 6 ar
2 1 17 1
3 2 5 ar
4 2 18 ar
5 3 4 ar
6 4 9 ar
7 4 20 1
8 5 8 ar
9 6 7 ar
10 7 12 ar
11 7 19 1
12 8 11 ar
13 9 10 ar
14 10 13 ar
15 10 14 1
16 11 15 ar
17 11 21 1
18 1 14 ar
19 12 14 ar
20 15 18 ar
21 3 16 ar
22 13 16 ar
23 2 20 1
24 21 22 1
25 21 23 1
@<TRIPOS>SUBSTRUCTURE
1	CK8500	1	GROUP	1 A	CK8
