# created with PyMOL 3.1.3.1
@<TRIPOS>MOLECULE
2R64_A
32 36 1                 
SMALL
USER_CHARGES
@<TRIPOS>ATOM
1	  C1	28.438	42.126	18.400	C.2	1	740500	0.000	
2	  N1	27.046	41.864	18.342	N.pl3	1	740500	0.000	
3	  S1	34.604	50.418	21.579	S.O2	1	740500	0.000	
4	  C2	29.082	42.566	19.615	C.2	1	740500	0.000	
5	  O2	35.960	49.765	21.688	O.2	1	740500	0.000	
6	  C3	30.508	42.806	19.607	C.2	1	740500	0.000	
7	  O3	34.482	51.799	21.005	O.2	1	740500	0.000	
8	  C4	31.246	42.601	18.396	C.2	1	740500	0.000	
9	  C5	30.584	42.173	17.234	C.2	1	740500	0.000	
10	  C6	29.208	41.941	17.238	C.2	1	740500	0.000	
11	  C7	32.728	42.843	18.324	C.3	1	740500	0.000	
12	  C8	33.078	44.354	18.398	C.2	1	740500	0.000	
13	  C9	32.273	50.007	22.528	C.3	1	740500	0.000	
14	  N9	33.787	44.784	17.308	N.pl3	1	740500	0.000	
15	 C10	34.396	46.083	16.904	C.2	1	740500	0.000	
16	 C11	26.202	42.615	17.336	C.3	1	740500	0.000	
17	 N11	35.053	46.324	15.770	N.pl3	1	740500	0.000	
18	 C12	33.682	50.210	23.089	C.3	1	740500	0.000	
19	 N12	35.492	47.605	15.720	N.2	1	740500	0.000	
20	 C13	35.152	48.314	16.836	C.2	1	740500	0.000	
21	 C14	35.365	49.626	17.250	C.2	1	740500	0.000	
22	 C15	34.869	50.044	18.507	C.2	1	740500	0.000	
23	 C16	34.152	49.125	19.353	C.2	1	740500	0.000	
24	 C17	33.933	47.784	18.919	C.2	1	740500	0.000	
25	 C18	34.414	47.343	17.675	C.2	1	740500	0.000	
26	 C19	26.486	40.814	19.237	C.3	1	740500	0.000	
27	 N19	33.691	49.562	20.577	N.pl3	1	740500	0.000	
28	 C20	24.944	40.820	19.363	C.3	1	740500	0.000	
29	 C21	24.307	41.018	17.979	C.3	1	740500	0.000	
30	 C22	32.351	49.328	21.118	C.3	1	740500	0.000	
31	 C23	24.658	42.435	17.487	C.3	1	740500	0.000	
32	 O24	32.748	45.013	19.374	O.2	1	740500	0.000	
@<TRIPOS>BOND
1 1 2 1
2 1 4 ar
3 1 10 ar
4 2 26 1
5 3 5 2
6 3 7 2
7 3 18 1
8 4 6 ar
9 6 8 ar
10 8 9 ar
11 8 11 1
12 9 10 ar
13 11 12 1
14 12 14 1
15 12 32 2
16 13 18 1
17 14 15 1
18 15 17 ar
19 15 25 ar
20 2 16 1
21 16 31 1
22 17 19 ar
23 19 20 ar
24 20 21 ar
25 20 25 ar
26 21 22 ar
27 22 23 ar
28 23 24 ar
29 23 27 1
30 24 25 ar
31 26 28 1
32 3 27 1
33 27 30 1
34 28 29 1
35 29 31 1
36 13 30 1
@<TRIPOS>SUBSTRUCTURE
1	740500	1	GROUP	1 A	740
