# created with PyMOL 3.1.3.1
@<TRIPOS>MOLECULE
2C5O_CD
28 30 1                 
SMALL
USER_CHARGES
@<TRIPOS>ATOM
1	 C1A	34.443	49.356	19.830	C.2	1	CK21298	0.000	
2	  N1	34.575	46.595	15.531	N.2	1	CK21298	0.000	
3	 C1A	34.195	49.889	18.345	C.2	1	CK21298	0.000	
4	  N1	34.558	45.681	15.471	N.2	1	CK21298	0.000	
5	  C2	34.142	46.376	16.778	C.2	1	CK21298	0.000	
6	 N2A	34.678	50.476	20.532	N.2	1	CK21298	0.000	
7	  C2	33.642	45.463	16.418	C.2	1	CK21298	0.000	
8	 N2A	33.660	50.538	19.390	N.2	1	CK21298	0.000	
9	 C3A	35.248	51.416	19.760	C.2	1	CK21298	0.000	
10	  N3	34.239	47.324	17.717	N.2	1	CK21298	0.000	
11	 C3A	32.748	49.778	20.023	C.2	1	CK21298	0.000	
12	  N3	33.353	46.403	17.322	N.2	1	CK21298	0.000	
13	  C4	34.777	48.517	17.437	C.2	1	CK21298	0.000	
14	 S4A	35.574	51.061	18.124	S.2	1	CK21298	0.000	
15	  C4	33.961	47.590	17.270	C.2	1	CK21298	0.000	
16	 S4A	32.431	48.204	19.452	S.2	1	CK21298	0.000	
17	  C5	35.232	48.769	16.147	C.2	1	CK21298	0.000	
18	 C5A	34.881	49.501	18.413	C.2	1	CK21298	0.000	
19	  C5	34.928	47.848	16.307	C.2	1	CK21298	0.000	
20	 C5A	33.605	48.530	18.225	C.2	1	CK21298	0.000	
21	  C6	35.117	47.769	15.190	C.2	1	CK21298	0.000	
22	 C6A	33.800	48.249	20.612	C.3	1	CK21298	0.000	
23	  C6	35.221	46.841	15.396	C.2	1	CK21298	0.000	
24	 C6A	35.237	50.621	17.553	C.3	1	CK21298	0.000	
25	 C7A	35.594	52.759	20.330	C.3	1	CK21298	0.000	
26	  N7	33.577	45.132	17.105	N.pl3	1	CK21298	0.000	
27	 C7A	31.997	50.312	21.208	C.3	1	CK21298	0.000	
28	  N7	33.000	44.220	16.536	N.pl3	1	CK21298	0.000	
@<TRIPOS>BOND
1 1 18 ar
2 1 22 1
3 2 5 ar
4 3 20 ar
5 3 24 1
6 4 7 ar
7 5 26 1
8 1 6 ar
9 7 28 1
10 3 8 ar
11 6 9 ar
12 9 14 ar
13 5 10 ar
14 8 11 ar
15 11 16 ar
16 7 12 ar
17 10 13 ar
18 13 17 ar
19 14 18 ar
20 12 15 ar
21 15 19 ar
22 16 20 ar
23 17 21 ar
24 13 18 1
25 19 23 ar
26 15 20 1
27 2 21 ar
28 4 23 ar
29 9 25 1
30 11 27 1
@<TRIPOS>SUBSTRUCTURE
1	CK21298	1	GROUP	1 C	CK2
