# created with PyMOL 3.1.3.1
@<TRIPOS>MOLECULE
3EZV_A
32 37 1                 
SMALL
USER_CHARGES
@<TRIPOS>ATOM
1	  C1	34.662	49.458	19.227	C.2	1	EZV300	0.000	
2	  C2	35.513	50.091	18.356	C.2	1	EZV300	0.000	
3	  C3	35.850	49.521	17.150	C.2	1	EZV300	0.000	
4	  C4	35.271	48.304	16.895	C.2	1	EZV300	0.000	
5	  C5	34.430	47.643	17.765	C.2	1	EZV300	0.000	
6	  C6	34.102	48.227	18.975	C.2	1	EZV300	0.000	
7	  N7	35.400	47.486	15.812	N.pl3	1	EZV300	0.000	
8	  N8	34.708	46.341	15.909	N.2	1	EZV300	0.000	
9	  C9	34.110	46.432	17.104	C.2	1	EZV300	0.000	
10	 C10	33.270	45.340	17.641	C.2	1	EZV300	0.000	
11	 N11	33.022	44.226	16.998	N.pl3	1	EZV300	0.000	
12	 C12	32.227	43.482	17.827	C.2	1	EZV300	0.000	
13	 C13	31.991	44.157	19.003	C.2	1	EZV300	0.000	
14	 N14	32.665	45.333	18.864	N.2	1	EZV300	0.000	
15	 C15	31.683	42.229	17.618	C.2	1	EZV300	0.000	
16	 C16	30.914	41.730	18.642	C.2	1	EZV300	0.000	
17	 C17	30.693	42.425	19.807	C.2	1	EZV300	0.000	
18	 C18	31.225	43.671	20.034	C.2	1	EZV300	0.000	
19	 C19	36.141	51.326	18.737	C.2	1	EZV300	0.000	
20	 N20	31.000	44.383	21.214	N.pl3	1	EZV300	0.000	
21	 C21	32.269	44.868	21.694	C.3	1	EZV300	0.000	
22	 C22	31.965	45.807	22.835	C.3	1	EZV300	0.000	
23	 N23	31.241	45.026	23.873	N.3	1	EZV300	0.000	
24	 C24	29.989	44.388	23.389	C.3	1	EZV300	0.000	
25	 C25	30.311	43.550	22.173	C.3	1	EZV300	0.000	
26	 C26	30.992	45.848	25.079	C.3	1	EZV300	0.000	
27	 C27	35.521	52.292	19.494	C.2	1	EZV300	0.000	
28	 C28	36.208	53.425	19.866	C.2	1	EZV300	0.000	
29	 C29	37.519	53.613	19.489	C.2	1	EZV300	0.000	
30	 C30	38.139	52.647	18.728	C.2	1	EZV300	0.000	
31	 C31	37.452	51.514	18.368	C.2	1	EZV300	0.000	
32	 N32	38.229	54.766	19.871	N.pl3	1	EZV300	0.000	
@<TRIPOS>BOND
1 1 2 ar
2 1 6 ar
3 2 3 ar
4 2 19 1
5 3 4 ar
6 4 5 ar
7 4 7 ar
8 5 6 ar
9 5 9 ar
10 7 8 ar
11 8 9 ar
12 9 10 1
13 10 11 ar
14 10 14 ar
15 11 12 ar
16 12 13 ar
17 12 15 ar
18 13 14 ar
19 13 18 ar
20 15 16 ar
21 16 17 ar
22 17 18 ar
23 18 20 1
24 19 27 ar
25 19 31 ar
26 20 21 1
27 20 25 1
28 21 22 1
29 22 23 1
30 23 24 1
31 23 26 1
32 24 25 1
33 27 28 ar
34 28 29 ar
35 29 30 ar
36 29 32 1
37 30 31 ar
@<TRIPOS>SUBSTRUCTURE
1	EZV300	1	GROUP	1 A	EZV
