# created with PyMOL 3.1.3.1
@<TRIPOS>MOLECULE
1PXL_A
24 26 1                 
SMALL
USER_CHARGES
@<TRIPOS>ATOM
1	 C1A	35.231	49.944	19.395	C.2	1	CK4500	0.000	
2	 C1B	32.511	43.514	18.857	C.2	1	CK4500	0.000	
3	  N1	34.587	45.512	16.317	N.2	1	CK4500	0.000	
4	  C2	34.011	45.429	17.504	C.2	1	CK4500	0.000	
5	 C2B	32.240	44.156	20.110	C.2	1	CK4500	0.000	
6	 N2A	34.920	50.508	20.651	N.2	1	CK4500	0.000	
7	 C3A	34.191	49.620	21.375	C.2	1	CK4500	0.000	
8	 C3B	31.458	43.526	21.105	C.2	1	CK4500	0.000	
9	  N3	34.080	46.448	18.376	N.2	1	CK4500	0.000	
10	  C4	34.750	47.655	18.118	C.2	1	CK4500	0.000	
11	 C4B	30.897	42.195	20.891	C.2	1	CK4500	0.000	
12	 S4A	33.837	48.136	20.664	S.2	1	CK4500	0.000	
13	  C5	35.396	47.797	16.828	C.2	1	CK4500	0.000	
14	 C5A	34.726	48.633	19.177	C.2	1	CK4500	0.000	
15	 C5B	31.159	41.504	19.639	C.2	1	CK4500	0.000	
16	  C6	35.263	46.665	15.979	C.2	1	CK4500	0.000	
17	 C6A	36.071	50.795	18.405	C.3	1	CK4500	0.000	
18	 C6B	31.956	42.140	18.624	C.2	1	CK4500	0.000	
19	 C7A	33.642	49.792	22.762	C.3	1	CK4500	0.000	
20	 C7B	29.984	41.514	22.020	C.3	1	CK4500	0.000	
21	  N7	33.308	44.196	17.807	N.pl3	1	CK4500	0.000	
22	 F1B	29.181	40.494	21.459	 F	1	CK4500	0.000	
23	 F8B	29.146	42.513	22.559	 F	1	CK4500	0.000	
24	 F9B	30.801	40.983	23.023	 F	1	CK4500	0.000	
@<TRIPOS>BOND
1 1 6 ar
2 1 17 1
3 2 21 1
4 3 16 ar
5 3 4 ar
6 4 9 ar
7 2 5 ar
8 6 7 ar
9 7 19 1
10 5 8 ar
11 9 10 ar
12 10 14 1
13 8 11 ar
14 11 15 ar
15 7 12 ar
16 10 13 ar
17 1 14 ar
18 12 14 ar
19 15 18 ar
20 13 16 ar
21 2 18 ar
22 11 20 1
23 20 22 1
24 20 24 1
25 4 21 1
26 20 23 1
@<TRIPOS>SUBSTRUCTURE
1	CK4500	1	GROUP	1 A	CK4
