# created with PyMOL 3.1.3.1
@<TRIPOS>MOLECULE
2C5V_ABF
24 26 1                 
SMALL
USER_CHARGES
@<TRIPOS>ATOM
1	 C1A	34.884	50.877	18.332	C.2	1	CK41297	0.000	
2	 C1B	32.816	44.581	17.831	C.2	1	CK41297	0.000	
3	  N1	34.682	46.524	15.508	N.2	1	CK41297	0.000	
4	  C2	34.002	46.315	16.630	C.2	1	CK41297	0.000	
5	 C2B	32.501	45.290	18.983	C.2	1	CK41297	0.000	
6	 N2A	34.547	51.573	19.443	N.2	1	CK41297	0.000	
7	 C3A	33.924	50.753	20.317	C.2	1	CK41297	0.000	
8	 C3B	31.800	44.662	20.009	C.2	1	CK41297	0.000	
9	  N3	33.860	47.286	17.550	N.2	1	CK41297	0.000	
10	  C4	34.410	48.507	17.379	C.2	1	CK41297	0.000	
11	 C4B	31.382	43.336	19.879	C.2	1	CK41297	0.000	
12	 S4A	33.424	49.240	19.756	S.2	1	CK41297	0.000	
13	  C5	35.091	48.741	16.193	C.2	1	CK41297	0.000	
14	 C5A	34.240	49.532	18.323	C.2	1	CK41297	0.000	
15	 C5B	31.714	42.642	18.725	C.2	1	CK41297	0.000	
16	  C6	35.229	47.712	15.273	C.2	1	CK41297	0.000	
17	 C6A	35.654	51.667	17.308	C.3	1	CK41297	0.000	
18	 C6B	32.426	43.262	17.714	C.2	1	CK41297	0.000	
19	 C7A	33.388	51.256	21.634	C.3	1	CK41297	0.000	
20	 C7B	30.629	42.583	20.954	C.3	1	CK41297	0.000	
21	  N7	33.464	45.083	16.755	N.pl3	1	CK41297	0.000	
22	 F1B	29.875	43.394	21.676	 F	1	CK41297	0.000	
23	 F8B	31.498	41.985	21.760	 F	1	CK41297	0.000	
24	 F9B	29.849	41.659	20.403	 F	1	CK41297	0.000	
@<TRIPOS>BOND
1 1 6 ar
2 1 17 1
3 2 21 1
4 3 16 ar
5 3 4 ar
6 4 9 ar
7 2 5 ar
8 6 7 ar
9 7 19 1
10 5 8 ar
11 9 10 ar
12 10 14 1
13 8 11 ar
14 11 15 ar
15 7 12 ar
16 10 13 ar
17 1 14 ar
18 12 14 ar
19 15 18 ar
20 13 16 ar
21 2 18 ar
22 11 20 1
23 20 22 1
24 20 24 1
25 4 21 1
26 20 23 1
@<TRIPOS>SUBSTRUCTURE
1	CK41297	1	GROUP	1 A	CK4
