# created with PyMOL 3.1.3.1
@<TRIPOS>MOLECULE
1PXJ_A
14 15 1                 
SMALL
USER_CHARGES
@<TRIPOS>ATOM
1	 C1A	33.996	48.331	21.085	C.2	1	CK2500	0.000	
2	  N1	34.582	46.655	16.303	N.2	1	CK2500	0.000	
3	  C2	35.065	47.669	16.977	C.2	1	CK2500	0.000	
4	 N2A	33.274	48.670	22.151	N.2	1	CK2500	0.000	
5	 C3A	32.048	48.510	22.081	C.2	1	CK2500	0.000	
6	  N3	34.709	48.099	18.109	N.2	1	CK2500	0.000	
7	  C4	33.746	47.440	18.746	C.2	1	CK2500	0.000	
8	 S4A	31.639	47.875	20.606	S.2	1	CK2500	0.000	
9	  C5	33.114	46.343	18.161	C.2	1	CK2500	0.000	
10	 C5A	33.295	47.879	20.069	C.2	1	CK2500	0.000	
11	  C6	33.581	45.979	16.921	C.2	1	CK2500	0.000	
12	 C6A	35.367	48.585	21.304	C.3	1	CK2500	0.000	
13	 C7A	31.141	48.865	23.260	C.3	1	CK2500	0.000	
14	  N7	36.070	48.303	16.455	N.pl3	1	CK2500	0.000	
@<TRIPOS>BOND
1 1 10 ar
2 1 12 1
3 2 3 ar
4 3 14 1
5 1 4 ar
6 4 5 ar
7 5 8 ar
8 3 6 ar
9 6 7 ar
10 7 9 ar
11 8 10 ar
12 9 11 ar
13 7 10 1
14 2 11 ar
15 5 13 1
@<TRIPOS>SUBSTRUCTURE
1	CK2500	1	GROUP	1 A	CK2
