# created with PyMOL 3.1.3.1
@<TRIPOS>MOLECULE
2X1N_AB
24 27 1                 
SMALL
USER_CHARGES
@<TRIPOS>ATOM
1	 C1A	34.755	49.906	17.908	C.2	1	X1N1297	0.000	
2	 C1B	32.280	43.912	17.877	C.2	1	X1N1297	0.000	
3	  N1	34.267	45.656	15.514	N.2	1	X1N1297	0.000	
4	  C2	33.515	45.523	16.611	C.2	1	X1N1297	0.000	
5	 C2B	32.293	44.586	19.094	C.2	1	X1N1297	0.000	
6	 N2A	34.585	50.858	18.836	N.2	1	X1N1297	0.000	
7	 C3A	33.653	50.652	19.763	C.2	1	X1N1297	0.000	
8	 C3B	31.513	44.092	20.134	C.2	1	X1N1297	0.000	
9	  N3	33.410	46.542	17.456	N.2	1	X1N1297	0.000	
10	  C4	34.034	47.688	17.187	C.2	1	X1N1297	0.000	
11	 C4B	30.726	42.945	19.988	C.2	1	X1N1297	0.000	
12	 S4A	33.013	49.118	19.404	S.2	1	X1N1297	0.000	
13	  C5	34.822	47.825	16.060	C.2	1	X1N1297	0.000	
14	 C5A	33.944	48.781	18.045	C.2	1	X1N1297	0.000	
15	 C5B	30.698	42.263	18.780	C.2	1	X1N1297	0.000	
16	  C6	34.942	46.742	15.198	C.2	1	X1N1297	0.000	
17	 C6A	35.817	50.040	16.820	C.3	1	X1N1297	0.000	
18	 C6B	31.484	42.759	17.748	C.2	1	X1N1297	0.000	
19	  N7	32.979	44.324	16.803	N.pl3	1	X1N1297	0.000	
20	 N7B	31.496	44.759	21.286	N.2	1	X1N1297	0.000	
21	 O8B	30.541	44.395	22.323	O.2	1	X1N1297	0.000	
22	 O9B	32.398	45.859	21.511	O.2	1	X1N1297	0.000	
23	 C20	33.218	51.427	20.841	C.3	1	X1N1297	0.000	
24	 C60	35.538	49.109	15.655	C.3	1	X1N1297	0.000	
@<TRIPOS>BOND
1 1 17 1
2 2 19 1
3 3 4 ar
4 4 9 ar
5 2 5 ar
6 1 6 ar
7 6 7 ar
8 7 23 1
9 5 8 ar
10 8 11 ar
11 9 10 ar
12 10 13 ar
13 10 14 ar
14 11 15 ar
15 7 12 ar
16 13 16 ar
17 1 14 ar
18 12 14 ar
19 15 18 ar
20 3 16 ar
21 17 24 1
22 2 18 ar
23 4 19 1
24 8 20 1
25 20 21 ar
26 20 22 ar
27 13 24 1
@<TRIPOS>SUBSTRUCTURE
1	X1N1297	1	GROUP	1 A	X1N
