# created with PyMOL 3.1.3.1
@<TRIPOS>MOLECULE
2VTO_A
24 26 1                 
SMALL
USER_CHARGES
@<TRIPOS>ATOM
1	  C2	30.890	41.701	18.860	C.2	1	LZ81299	0.000	
2	  C3	31.796	42.366	19.664	C.2	1	LZ81299	0.000	
3	  C4	32.586	43.358	19.109	C.2	1	LZ81299	0.000	
4	  C5	32.473	43.668	17.749	C.2	1	LZ81299	0.000	
5	  N6	33.268	44.682	17.181	N.pl3	1	LZ81299	0.000	
6	  C7	33.458	45.883	17.741	C.2	1	LZ81299	0.000	
7	  O8	32.922	46.203	18.801	O.2	1	LZ81299	0.000	
8	  C9	34.355	46.813	17.018	C.2	1	LZ81299	0.000	
9	 N10	34.804	46.506	15.807	N.pl3	1	LZ81299	0.000	
10	 N11	35.591	47.547	15.431	N.2	1	LZ81299	0.000	
11	 C12	35.643	48.495	16.362	C.2	1	LZ81299	0.000	
12	 C13	34.854	48.064	17.415	C.2	1	LZ81299	0.000	
13	 N14	34.575	48.677	18.623	N.pl3	1	LZ81299	0.000	
14	 C15	34.974	49.907	19.019	C.2	1	LZ81299	0.000	
15	 O16	35.649	50.654	18.309	O.2	1	LZ81299	0.000	
16	 C17	34.531	50.324	20.386	C.2	1	LZ81299	0.000	
17	 C18	34.061	51.611	20.612	C.2	1	LZ81299	0.000	
18	 C20	33.638	51.988	21.874	C.2	1	LZ81299	0.000	
19	 C21	33.682	51.086	22.918	C.2	1	LZ81299	0.000	
20	 C22	34.144	49.803	22.704	C.2	1	LZ81299	0.000	
21	 C23	34.567	49.420	21.444	C.2	1	LZ81299	0.000	
22	 C25	31.545	42.980	16.962	C.2	1	LZ81299	0.000	
23	 C26	30.751	41.998	17.520	C.2	1	LZ81299	0.000	
24	  F1	30.128	40.726	19.392	 F	1	LZ81299	0.000	
@<TRIPOS>BOND
1 1 2 ar
2 1 23 ar
3 2 3 ar
4 3 4 ar
5 4 5 1
6 4 22 ar
7 5 6 1
8 6 7 2
9 6 8 1
10 8 9 ar
11 8 12 ar
12 9 10 ar
13 10 11 ar
14 11 12 ar
15 12 13 1
16 13 14 1
17 14 15 2
18 14 16 1
19 16 17 ar
20 16 21 ar
21 17 18 ar
22 18 19 ar
23 19 20 ar
24 20 21 ar
25 22 23 ar
26 1 24 1
@<TRIPOS>SUBSTRUCTURE
1	LZ81299	1	GROUP	1 A	LZ8
