# created with PyMOL 3.1.3.1
@<TRIPOS>MOLECULE
2C5N_AB
46 50 1                 
SMALL
USER_CHARGES
@<TRIPOS>ATOM
1	 C1A	35.122	50.699	18.212	C.2	1	CK81297	0.000	
2	 C1B	32.680	44.708	17.724	C.2	1	CK81297	0.000	
3	  N1	34.906	46.472	15.381	N.2	1	CK81297	0.000	
4	 C1A	33.493	49.069	19.752	C.2	1	CK81297	0.000	
5	 C1B	32.470	44.606	17.664	C.2	1	CK81297	0.000	
6	  N1	34.518	46.450	15.351	N.2	1	CK81297	0.000	
7	  C2	34.135	46.333	16.497	C.2	1	CK81297	0.000	
8	 C2B	32.192	43.424	17.538	C.2	1	CK81297	0.000	
9	 N2A	34.867	51.506	19.250	N.2	1	CK81297	0.000	
10	  C2	33.801	46.188	16.459	C.2	1	CK81297	0.000	
11	 C2B	31.873	43.354	17.659	C.2	1	CK81297	0.000	
12	 N2A	33.646	50.203	20.467	N.2	1	CK81297	0.000	
13	 C3A	34.034	50.887	20.084	C.2	1	CK81297	0.000	
14	 C3B	31.335	42.813	18.439	C.2	1	CK81297	0.000	
15	  N3	34.031	47.295	17.415	N.2	1	CK81297	0.000	
16	 C3A	34.424	51.046	19.791	C.2	1	CK81297	0.000	
17	 C3B	31.111	42.924	18.736	C.2	1	CK81297	0.000	
18	  N3	33.709	47.056	17.466	N.2	1	CK81297	0.000	
19	  C4	34.651	48.454	17.303	C.2	1	CK81297	0.000	
20	 C4B	30.961	43.487	19.583	C.2	1	CK81297	0.000	
21	 S4A	33.531	49.308	19.715	S.2	1	CK81297	0.000	
22	  C4	34.306	48.234	17.403	C.2	1	CK81297	0.000	
23	 C4B	30.954	43.752	19.841	C.2	1	CK81297	0.000	
24	 S4A	34.978	50.594	18.265	S.2	1	CK81297	0.000	
25	  C5	35.441	48.654	16.171	C.2	1	CK81297	0.000	
26	 C5A	34.463	49.397	18.312	C.2	1	CK81297	0.000	
27	 C5B	31.440	44.779	19.786	C.2	1	CK81297	0.000	
28	  C5	35.038	48.553	16.264	C.2	1	CK81297	0.000	
29	 C5A	34.200	49.138	18.450	C.2	1	CK81297	0.000	
30	 C5B	31.535	45.010	19.843	C.2	1	CK81297	0.000	
31	  C6	35.583	47.620	15.242	C.2	1	CK81297	0.000	
32	 C6A	36.025	51.224	17.151	C.3	1	CK81297	0.000	
33	 C6B	32.277	45.403	18.860	C.2	1	CK81297	0.000	
34	  C6	35.139	47.624	15.235	C.2	1	CK81297	0.000	
35	 C6A	32.658	48.029	20.419	C.3	1	CK81297	0.000	
36	 C6B	32.297	45.436	18.761	C.2	1	CK81297	0.000	
37	 C7A	33.640	51.611	21.342	C.3	1	CK81297	0.000	
38	  N7	33.488	45.159	16.722	N.pl3	1	CK81297	0.000	
39	 N7B	30.121	42.866	20.451	N.pl3	1	CK81297	0.000	
40	 C7A	34.770	52.404	20.338	C.3	1	CK81297	0.000	
41	  N7	33.191	44.986	16.580	N.pl3	1	CK81297	0.000	
42	 N7B	30.221	43.369	20.913	N.pl3	1	CK81297	0.000	
43	 C8B	29.682	43.533	21.667	C.3	1	CK81297	0.000	
44	 C8B	30.067	44.289	22.035	C.3	1	CK81297	0.000	
45	 C9B	29.647	41.516	20.182	C.3	1	CK81297	0.000	
46	 C9B	29.578	42.062	20.932	C.3	1	CK81297	0.000	
@<TRIPOS>BOND
1 1 9 ar
2 1 32 1
3 2 8 ar
4 2 33 ar
5 3 7 ar
6 4 12 ar
7 4 35 1
8 5 11 ar
9 5 36 ar
10 6 10 ar
11 7 15 ar
12 7 38 1
13 8 14 ar
14 9 13 ar
15 10 18 ar
16 10 41 1
17 11 17 ar
18 12 16 ar
19 13 21 ar
20 13 37 1
21 14 20 ar
22 15 19 ar
23 16 24 ar
24 16 40 1
25 17 23 ar
26 18 22 ar
27 19 25 ar
28 19 26 1
29 20 27 ar
30 20 39 1
31 22 28 ar
32 22 29 1
33 23 30 ar
34 23 42 1
35 1 26 ar
36 21 26 ar
37 27 33 ar
38 4 29 ar
39 24 29 ar
40 30 36 ar
41 3 31 ar
42 25 31 ar
43 6 34 ar
44 28 34 ar
45 2 38 1
46 39 43 1
47 39 45 1
48 5 41 1
49 42 44 1
50 42 46 1
@<TRIPOS>SUBSTRUCTURE
1	CK81297	1	GROUP	1 A	CK8
