# created with PyMOL 3.1.3.1
@<TRIPOS>MOLECULE
2X1N_CD
24 27 1                 
SMALL
USER_CHARGES
@<TRIPOS>ATOM
1	 C1A	34.286	49.846	18.525	C.2	1	X1N1298	0.000	
2	 C1B	32.014	43.733	18.132	C.2	1	X1N1298	0.000	
3	  N1	34.121	45.630	16.008	N.2	1	X1N1298	0.000	
4	  C2	33.416	45.406	17.130	C.2	1	X1N1298	0.000	
5	 C2B	31.988	44.057	19.471	C.2	1	X1N1298	0.000	
6	 N2A	34.033	50.765	19.495	N.2	1	X1N1298	0.000	
7	 C3A	33.121	50.398	20.405	C.2	1	X1N1298	0.000	
8	 C3B	30.985	43.532	20.288	C.2	1	X1N1298	0.000	
9	  N3	33.244	46.394	17.998	N.2	1	X1N1298	0.000	
10	  C4	33.737	47.608	17.727	C.2	1	X1N1298	0.000	
11	 C4B	30.041	42.639	19.786	C.2	1	X1N1298	0.000	
12	 S4A	32.632	48.826	19.992	S.2	1	X1N1298	0.000	
13	  C5	34.446	47.844	16.574	C.2	1	X1N1298	0.000	
14	 C5A	33.576	48.651	18.616	C.2	1	X1N1298	0.000	
15	 C5B	30.082	42.276	18.448	C.2	1	X1N1298	0.000	
16	  C6	34.638	46.796	15.687	C.2	1	X1N1298	0.000	
17	 C6A	35.289	50.087	17.401	C.3	1	X1N1298	0.000	
18	 C6B	31.083	42.819	17.645	C.2	1	X1N1298	0.000	
19	  N7	32.976	44.165	17.333	N.pl3	1	X1N1298	0.000	
20	 N7B	30.947	43.853	21.586	N.2	1	X1N1298	0.000	
21	 O8B	30.430	42.872	22.541	O.2	1	X1N1298	0.000	
22	 O9B	31.437	45.138	22.054	O.2	1	X1N1298	0.000	
23	 C20	32.564	50.992	21.530	C.3	1	X1N1298	0.000	
24	 C60	35.026	49.200	16.199	C.3	1	X1N1298	0.000	
@<TRIPOS>BOND
1 1 17 1
2 2 19 1
3 3 4 ar
4 4 9 ar
5 2 5 ar
6 1 6 ar
7 6 7 ar
8 7 23 1
9 5 8 ar
10 8 11 ar
11 9 10 ar
12 10 13 ar
13 10 14 ar
14 11 15 ar
15 7 12 ar
16 13 16 ar
17 1 14 ar
18 12 14 ar
19 15 18 ar
20 3 16 ar
21 17 24 1
22 2 18 ar
23 4 19 1
24 8 20 1
25 20 21 ar
26 20 22 ar
27 13 24 1
@<TRIPOS>SUBSTRUCTURE
1	X1N1298	1	GROUP	1 C	X1N
