# created with PyMOL 3.1.3.1
@<TRIPOS>MOLECULE
2VTI_A
22 24 1                 
SMALL
USER_CHARGES
@<TRIPOS>ATOM
1	  N1	33.223	45.110	17.717	N.pl3	1	LZ31299	0.000	
2	  C2	33.317	46.355	18.173	C.2	1	LZ31299	0.000	
3	  C3	34.300	47.208	17.502	C.2	1	LZ31299	0.000	
4	  C4	34.596	49.274	18.999	C.2	1	LZ31299	0.000	
5	  C5	35.288	50.468	19.106	C.2	1	LZ31299	0.000	
6	  C6	36.223	50.817	18.145	C.2	1	LZ31299	0.000	
7	  C7	36.474	49.972	17.080	C.2	1	LZ31299	0.000	
8	  C8	32.634	44.086	18.472	C.2	1	LZ31299	0.000	
9	  C9	34.815	48.434	17.910	C.2	1	LZ31299	0.000	
10	 O11	32.660	46.762	19.143	O.2	1	LZ31299	0.000	
11	 N12	34.888	46.793	16.373	N.pl3	1	LZ31299	0.000	
12	 C16	35.773	48.780	16.956	C.2	1	LZ31299	0.000	
13	 N17	35.778	47.760	16.044	N.2	1	LZ31299	0.000	
14	 C20	32.810	44.055	19.855	C.2	1	LZ31299	0.000	
15	 C21	32.239	43.052	20.603	C.2	1	LZ31299	0.000	
16	 C22	31.469	42.083	19.985	C.2	1	LZ31299	0.000	
17	 C23	31.278	42.113	18.614	C.2	1	LZ31299	0.000	
18	 C24	31.860	43.119	17.862	C.2	1	LZ31299	0.000	
19	 S27	30.778	40.783	20.944	S.O2	1	LZ31299	0.000	
20	 O28	31.876	40.016	21.433	O.2	1	LZ31299	0.000	
21	 O29	29.781	40.126	20.134	O.2	1	LZ31299	0.000	
22	 N30	30.024	41.422	22.211	N.3	1	LZ31299	0.000	
@<TRIPOS>BOND
1 1 2 1
2 1 8 1
3 2 3 1
4 2 10 2
5 3 9 ar
6 3 11 ar
7 4 5 ar
8 4 9 ar
9 5 6 ar
10 6 7 ar
11 7 12 ar
12 9 12 ar
13 11 13 ar
14 12 13 ar
15 8 14 ar
16 14 15 ar
17 15 16 ar
18 16 17 ar
19 16 19 1
20 17 18 ar
21 8 18 ar
22 19 20 2
23 19 21 2
24 19 22 1
@<TRIPOS>SUBSTRUCTURE
1	LZ31299	1	GROUP	1 A	LZ3
