# created with PyMOL 3.1.3.1
@<TRIPOS>MOLECULE
2C5O_AB
28 30 1                 
SMALL
USER_CHARGES
@<TRIPOS>ATOM
1	 C1A	35.034	49.959	18.212	C.2	1	CK21297	0.000	
2	  N1	34.434	45.889	15.206	N.2	1	CK21297	0.000	
3	 C1A	33.417	49.141	18.855	C.2	1	CK21297	0.000	
4	  N1	34.606	45.931	15.117	N.2	1	CK21297	0.000	
5	  C2	33.566	45.766	16.217	C.2	1	CK21297	0.000	
6	 N2A	34.748	50.678	19.309	N.2	1	CK21297	0.000	
7	  C2	33.739	45.924	16.138	C.2	1	CK21297	0.000	
8	 N2A	33.532	50.292	19.537	N.2	1	CK21297	0.000	
9	 C3A	33.788	50.082	20.034	C.2	1	CK21297	0.000	
10	  N3	33.494	46.696	17.176	N.2	1	CK21297	0.000	
11	 C3A	34.468	51.083	18.985	C.2	1	CK21297	0.000	
12	  N3	33.656	46.964	16.978	N.2	1	CK21297	0.000	
13	  C4	34.306	47.760	17.149	C.2	1	CK21297	0.000	
14	 S4A	33.125	48.607	19.492	S.2	1	CK21297	0.000	
15	  C4	34.446	48.032	16.814	C.2	1	CK21297	0.000	
16	 S4A	35.287	50.556	17.584	S.2	1	CK21297	0.000	
17	  C5	35.213	47.921	16.106	C.2	1	CK21297	0.000	
18	 C5A	34.219	48.715	18.154	C.2	1	CK21297	0.000	
19	  C5	35.348	48.070	15.756	C.2	1	CK21297	0.000	
20	 C5A	34.344	49.106	17.690	C.2	1	CK21297	0.000	
21	  C6	35.263	46.937	15.123	C.2	1	CK21297	0.000	
22	 C6A	36.118	50.513	17.332	C.3	1	CK21297	0.000	
23	  C6	35.412	46.976	14.899	C.2	1	CK21297	0.000	
24	 C6A	32.399	48.169	19.379	C.3	1	CK21297	0.000	
25	 C7A	33.280	50.729	21.289	C.3	1	CK21297	0.000	
26	  N7	32.758	44.622	16.306	N.pl3	1	CK21297	0.000	
27	 C7A	34.761	52.428	19.583	C.3	1	CK21297	0.000	
28	  N7	32.919	44.805	16.350	N.pl3	1	CK21297	0.000	
@<TRIPOS>BOND
1 1 18 ar
2 1 22 1
3 2 5 ar
4 3 20 ar
5 3 24 1
6 4 7 ar
7 5 26 1
8 1 6 ar
9 7 28 1
10 3 8 ar
11 6 9 ar
12 9 14 ar
13 5 10 ar
14 8 11 ar
15 11 16 ar
16 7 12 ar
17 10 13 ar
18 13 17 ar
19 14 18 ar
20 12 15 ar
21 15 19 ar
22 16 20 ar
23 17 21 ar
24 13 18 1
25 19 23 ar
26 15 20 1
27 2 21 ar
28 4 23 ar
29 9 25 1
30 11 27 1
@<TRIPOS>SUBSTRUCTURE
1	CK21297	1	GROUP	1 A	CK2
