# created with PyMOL 3.1.3.1
@<TRIPOS>MOLECULE
4A9N_AB
62 61 7                 
SMALL
USER_CHARGES
@<TRIPOS>ATOM
1	  C1	28.345	-20.911	34.856	C.3	1	EDO1187	0.000	
2	  O1	27.247	-21.309	35.686	O.3	1	EDO1187	0.000	
3	  C2	29.351	-20.031	35.588	C.3	1	EDO1187	0.000	
4	  O2	28.738	-19.382	36.712	O.3	1	EDO1187	0.000	
5	  C1	26.933	-14.226	29.203	C.3	2	EDO1188	0.000	
6	  O1	26.104	-14.143	30.366	O.3	2	EDO1188	0.000	
7	  C2	27.936	-13.079	29.169	C.3	2	EDO1188	0.000	
8	  O2	28.857	-13.195	30.255	O.3	2	EDO1188	0.000	
9	  C1	34.411	-14.566	20.684	C.3	3	EDO1189	0.000	
10	  O1	35.833	-14.742	20.747	O.3	3	EDO1189	0.000	
11	  C2	33.763	-15.113	21.952	C.3	3	EDO1189	0.000	
12	  O2	34.082	-14.263	23.061	O.3	3	EDO1189	0.000	
13	  C1	32.924	-3.904	36.748	C.3	4	A9N1190	0.000	
14	  N1	30.828	-4.916	36.403	N.2	4	A9N1190	0.000	
15	  O1	29.710	-5.252	37.158	O.2	4	A9N1190	0.000	
16	  C2	31.739	-4.333	37.187	C.2	4	A9N1190	0.000	
17	  N2	31.602	0.410	42.532	N.3	4	A9N1190	0.000	
18	  O2	30.491	-1.440	43.703	O.2	4	A9N1190	0.000	
19	  C3	29.953	-4.851	38.431	C.2	4	A9N1190	0.000	
20	  O3	29.621	-0.625	41.530	O.2	4	A9N1190	0.000	
21	  C4	28.898	-5.097	39.423	C.3	4	A9N1190	0.000	
22	  C5	31.198	-4.283	38.489	C.2	4	A9N1190	0.000	
23	  C6	31.818	-3.683	39.684	C.2	4	A9N1190	0.000	
24	  C7	33.081	-4.048	40.099	C.2	4	A9N1190	0.000	
25	  C8	33.632	-3.458	41.221	C.2	4	A9N1190	0.000	
26	  C9	32.960	-2.500	41.957	C.2	4	A9N1190	0.000	
27	 C10	33.618	-1.910	43.154	C.3	4	A9N1190	0.000	
28	 C11	31.676	-2.149	41.514	C.2	4	A9N1190	0.000	
29	 C12	31.117	-2.731	40.398	C.2	4	A9N1190	0.000	
30	 C13	32.062	1.145	41.358	C.3	4	A9N1190	0.000	
31	 C14	32.285	2.610	41.405	C.3	4	A9N1190	0.000	
32	 C15	31.233	2.216	40.749	C.3	4	A9N1190	0.000	
33	   S	30.728	-0.934	42.389	S.O2	4	A9N1190	0.000	
34	  C1	14.685	-15.497	13.781	C.3	5	EDO1187	0.000	
35	  O1	15.685	-16.224	13.052	O.3	5	EDO1187	0.000	
36	  C2	15.289	-14.302	14.502	C.3	5	EDO1187	0.000	
37	  O2	14.239	-13.459	14.984	O.3	5	EDO1187	0.000	
38	  C1	31.029	6.981	23.471	C.3	6	EDO1188	0.000	
39	  O1	31.064	7.577	24.782	O.3	6	EDO1188	0.000	
40	  C2	30.831	5.469	23.517	C.3	6	EDO1188	0.000	
41	  O2	29.825	5.111	22.570	O.3	6	EDO1188	0.000	
42	  C1	16.392	-3.318	19.612	C.3	7	A9N1189	0.000	
43	  N1	16.571	-2.584	21.836	N.2	7	A9N1189	0.000	
44	  O1	15.767	-2.521	22.970	O.2	7	A9N1189	0.000	
45	  C2	15.881	-3.132	20.833	C.2	7	A9N1189	0.000	
46	  N2	11.392	-8.604	20.157	N.3	7	A9N1189	0.000	
47	  O2	9.853	-7.155	21.419	O.2	7	A9N1189	0.000	
48	  C3	14.562	-3.057	22.638	C.2	7	A9N1189	0.000	
49	  O3	12.094	-7.706	22.318	O.2	7	A9N1189	0.000	
50	  C4	13.536	-3.103	23.691	C.3	7	A9N1189	0.000	
51	  C5	14.592	-3.440	21.325	C.2	7	A9N1189	0.000	
52	  C6	13.495	-4.116	20.602	C.2	7	A9N1189	0.000	
53	  C7	13.020	-3.636	19.404	C.2	7	A9N1189	0.000	
54	  C8	11.999	-4.298	18.750	C.2	7	A9N1189	0.000	
55	  C9	11.422	-5.448	19.250	C.2	7	A9N1189	0.000	
56	 C10	10.328	-6.105	18.485	C.3	7	A9N1189	0.000	
57	 C11	11.922	-5.920	20.474	C.2	7	A9N1189	0.000	
58	 C12	12.940	-5.265	21.137	C.2	7	A9N1189	0.000	
59	 C13	12.704	-9.097	19.733	C.3	7	A9N1189	0.000	
60	 C14	12.870	-10.445	19.136	C.3	7	A9N1189	0.000	
61	 C15	13.302	-10.306	20.356	C.3	7	A9N1189	0.000	
62	   S	11.250	-7.388	21.205	S.O2	7	A9N1189	0.000	
@<TRIPOS>BOND
1 1 2 1
2 1 3 1
3 3 4 1
4 5 6 1
5 5 7 1
6 7 8 1
7 9 10 1
8 9 11 1
9 11 12 1
10 14 15 ar
11 13 16 1
12 14 16 ar
13 17 30 1
14 15 19 ar
15 19 21 1
16 20 33 2
17 16 22 ar
18 19 22 ar
19 22 23 1
20 23 24 ar
21 24 25 ar
22 25 26 ar
23 26 27 1
24 26 28 ar
25 28 29 ar
26 23 29 ar
27 30 31 1
28 30 32 1
29 31 32 1
30 17 33 1
31 18 33 2
32 28 33 1
33 34 35 1
34 34 36 1
35 36 37 1
36 38 39 1
37 38 40 1
38 40 41 1
39 43 44 ar
40 42 45 1
41 43 45 ar
42 46 59 1
43 44 48 ar
44 48 50 1
45 49 62 2
46 45 51 ar
47 48 51 ar
48 51 52 1
49 52 53 ar
50 53 54 ar
51 54 55 ar
52 55 56 1
53 55 57 ar
54 57 58 ar
55 52 58 ar
56 59 60 1
57 59 61 1
58 60 61 1
59 46 62 1
60 47 62 2
61 57 62 1
@<TRIPOS>SUBSTRUCTURE
1	EDO1187	1	GROUP	1 A	EDO
2	EDO1188	5	GROUP	1 A	EDO
3	EDO1189	9	GROUP	1 A	EDO
4	A9N1190	13	GROUP	1 A	A9N
5	EDO1187	34	GROUP	1 B	EDO
6	EDO1188	38	GROUP	1 B	EDO
7	A9N1189	42	GROUP	1 B	A9N
