# created with PyMOL 3.1.3.1
@<TRIPOS>MOLECULE
4A9M_AB
46 50 2                 
SMALL
USER_CHARGES
@<TRIPOS>ATOM
1	  C1	32.826	-3.981	37.202	C.3	1	P9M1187	0.000	
2	  N1	30.644	-4.999	36.939	N.2	1	P9M1187	0.000	
3	  O1	29.494	-5.288	37.724	O.2	1	P9M1187	0.000	
4	  C2	31.495	-4.413	37.740	C.2	1	P9M1187	0.000	
5	  N2	30.674	0.016	43.472	N.3	1	P9M1187	0.000	
6	  O2	30.299	-2.083	44.647	O.2	1	P9M1187	0.000	
7	  C3	29.733	-4.859	38.979	C.2	1	P9M1187	0.000	
8	  O3	28.932	-1.474	42.669	O.2	1	P9M1187	0.000	
9	  C4	28.615	-5.080	39.960	C.3	1	P9M1187	0.000	
10	  C5	30.968	-4.300	39.044	C.2	1	P9M1187	0.000	
11	  C6	31.584	-3.689	40.254	C.2	1	P9M1187	0.000	
12	  C7	32.946	-3.814	40.523	C.2	1	P9M1187	0.000	
13	  C8	33.482	-3.216	41.668	C.2	1	P9M1187	0.000	
14	  C9	32.697	-2.487	42.574	C.2	1	P9M1187	0.000	
15	 C10	33.362	-1.876	43.793	C.3	1	P9M1187	0.000	
16	 C11	31.329	-2.380	42.280	C.2	1	P9M1187	0.000	
17	 C12	30.798	-2.966	41.140	C.2	1	P9M1187	0.000	
18	 C13	30.772	0.792	42.228	C.3	1	P9M1187	0.000	
19	 C14	32.218	1.218	42.008	C.3	1	P9M1187	0.000	
20	 C15	32.114	2.539	41.267	C.3	1	P9M1187	0.000	
21	 C16	30.677	3.011	41.372	C.3	1	P9M1187	0.000	
22	 C17	30.061	2.121	42.418	C.3	1	P9M1187	0.000	
23	   S	30.198	-1.498	43.336	S.O2	1	P9M1187	0.000	
24	  C1	16.343	-3.419	19.698	C.3	2	P9M1187	0.000	
25	  N1	16.287	-2.725	22.018	N.2	2	P9M1187	0.000	
26	  O1	15.353	-2.630	23.085	O.2	2	P9M1187	0.000	
27	  C2	15.623	-3.200	20.997	C.2	2	P9M1187	0.000	
28	  N2	10.368	-8.085	20.375	N.3	2	P9M1187	0.000	
29	  O2	8.857	-6.204	20.727	O.2	2	P9M1187	0.000	
30	  C3	14.160	-3.060	22.631	C.2	2	P9M1187	0.000	
31	  O3	10.598	-6.737	22.411	O.2	2	P9M1187	0.000	
32	  C4	13.044	-3.021	23.648	C.3	2	P9M1187	0.000	
33	  C5	14.270	-3.420	21.328	C.2	2	P9M1187	0.000	
34	  C6	13.190	-3.990	20.480	C.2	2	P9M1187	0.000	
35	  C7	13.085	-3.664	19.127	C.2	2	P9M1187	0.000	
36	  C8	12.075	-4.250	18.354	C.2	2	P9M1187	0.000	
37	  C9	11.161	-5.174	18.883	C.2	2	P9M1187	0.000	
38	 C10	10.100	-5.758	17.980	C.3	2	P9M1187	0.000	
39	 C11	11.299	-5.488	20.243	C.2	2	P9M1187	0.000	
40	 C12	12.302	-4.915	21.016	C.2	2	P9M1187	0.000	
41	 C13	11.613	-8.838	20.593	C.3	2	P9M1187	0.000	
42	 C14	12.400	-8.933	19.288	C.3	2	P9M1187	0.000	
43	 C15	13.182	-10.232	19.413	C.3	2	P9M1187	0.000	
44	 C16	12.560	-11.029	20.541	C.3	2	P9M1187	0.000	
45	 C17	11.287	-10.295	20.888	C.3	2	P9M1187	0.000	
46	   S	10.194	-6.636	21.040	S.O2	2	P9M1187	0.000	
@<TRIPOS>BOND
1 2 3 ar
2 1 4 1
3 2 4 ar
4 5 18 1
5 3 7 ar
6 7 9 1
7 8 23 2
8 4 10 ar
9 7 10 ar
10 10 11 1
11 11 12 ar
12 12 13 ar
13 13 14 ar
14 14 15 1
15 14 16 ar
16 16 17 ar
17 11 17 ar
18 18 19 1
19 18 22 1
20 19 20 1
21 20 21 1
22 21 22 1
23 5 23 1
24 6 23 2
25 16 23 1
26 25 26 ar
27 24 27 1
28 25 27 ar
29 28 41 1
30 26 30 ar
31 30 32 1
32 31 46 2
33 27 33 ar
34 30 33 ar
35 33 34 1
36 34 35 ar
37 35 36 ar
38 36 37 ar
39 37 38 1
40 37 39 ar
41 39 40 ar
42 34 40 ar
43 41 42 1
44 41 45 1
45 42 43 1
46 43 44 1
47 44 45 1
48 28 46 1
49 29 46 2
50 39 46 1
@<TRIPOS>SUBSTRUCTURE
1	P9M1187	1	GROUP	1 A	P9M
2	P9M1187	24	GROUP	1 B	P9M
