# created with PyMOL 3.1.3.1
@<TRIPOS>MOLECULE
4ALH_AB
34 34 4                 
SMALL
USER_CHARGES
@<TRIPOS>ATOM
1	  C1	19.854	-20.734	10.730	C.3	1	EDO1183	0.000	
2	  O1	20.819	-19.728	11.029	O.3	1	EDO1183	0.000	
3	  C2	18.508	-20.068	10.524	C.3	1	EDO1183	0.000	
4	  O2	18.641	-19.089	9.488	O.3	1	EDO1183	0.000	
5	  C1	12.961	-9.558	20.111	C.3	2	EDO1184	0.000	
6	  O1	12.988	-10.453	21.228	O.3	2	EDO1184	0.000	
7	  C2	11.548	-9.445	19.563	C.3	2	EDO1184	0.000	
8	  O2	11.261	-10.583	18.752	O.3	2	EDO1184	0.000	
9	   N	16.163	-2.755	22.227	N.2	3	A9P1185	0.000	
10	   O	15.181	-2.727	23.253	O.2	3	A9P1185	0.000	
11	  C2	12.867	-3.248	23.650	C.3	3	A9P1185	0.000	
12	  C3	14.032	-3.186	22.735	C.2	3	A9P1185	0.000	
13	  C4	15.567	-3.214	21.166	C.2	3	A9P1185	0.000	
14	  C5	16.348	-3.362	19.902	C.3	3	A9P1185	0.000	
15	  C6	14.216	-3.516	21.426	C.2	3	A9P1185	0.000	
16	  C7	13.196	-4.057	20.492	C.2	3	A9P1185	0.000	
17	  C8	12.569	-5.261	20.775	C.2	3	A9P1185	0.000	
18	  C9	11.651	-5.806	19.884	C.2	3	A9P1185	0.000	
19	 C10	11.356	-5.159	18.706	C.2	3	A9P1185	0.000	
20	 C11	11.978	-3.955	18.402	C.2	3	A9P1185	0.000	
21	 C12	12.900	-3.403	19.296	C.2	3	A9P1185	0.000	
22	   N	30.676	-4.966	37.090	N.2	4	A9P1184	0.000	
23	   O	29.555	-5.301	37.909	O.2	4	A9P1184	0.000	
24	  C2	28.821	-5.241	40.206	C.3	4	A9P1184	0.000	
25	  C3	29.858	-4.971	39.173	C.2	4	A9P1184	0.000	
26	  C4	31.571	-4.460	37.889	C.2	4	A9P1184	0.000	
27	  C5	32.874	-4.005	37.319	C.3	4	A9P1184	0.000	
28	  C6	31.113	-4.430	39.221	C.2	4	A9P1184	0.000	
29	  C7	31.820	-3.933	40.430	C.2	4	A9P1184	0.000	
30	  C8	33.107	-4.367	40.719	C.2	4	A9P1184	0.000	
31	  C9	33.815	-3.822	41.783	C.2	4	A9P1184	0.000	
32	 C10	33.247	-2.838	42.560	C.2	4	A9P1184	0.000	
33	 C11	31.965	-2.390	42.279	C.2	4	A9P1184	0.000	
34	 C12	31.253	-2.935	41.216	C.2	4	A9P1184	0.000	
@<TRIPOS>BOND
1 1 2 1
2 1 3 1
3 3 4 1
4 5 6 1
5 5 7 1
6 7 8 1
7 9 10 ar
8 10 12 ar
9 11 12 1
10 9 13 ar
11 13 15 ar
12 13 14 1
13 12 15 ar
14 15 16 1
15 16 17 ar
16 16 21 ar
17 17 18 ar
18 18 19 ar
19 19 20 ar
20 20 21 ar
21 22 23 ar
22 23 25 ar
23 24 25 1
24 22 26 ar
25 26 28 ar
26 26 27 1
27 25 28 ar
28 28 29 1
29 29 30 ar
30 29 34 ar
31 30 31 ar
32 31 32 ar
33 32 33 ar
34 33 34 ar
@<TRIPOS>SUBSTRUCTURE
1	EDO1183	1	GROUP	1 A	EDO
2	EDO1184	5	GROUP	1 A	EDO
3	A9P1185	9	GROUP	1 A	A9P
4	A9P1184	22	GROUP	1 B	A9P
