# created with PyMOL 3.1.3.1
@<TRIPOS>MOLECULE
4A9M_C
23 25 1                 
SMALL
USER_CHARGES
@<TRIPOS>ATOM
1	  C1	16.592	-3.046	20.274	C.3	1	P9M1183	0.000	
2	  N1	16.444	-2.305	22.583	N.2	1	P9M1183	0.000	
3	  O1	15.451	-2.163	23.605	O.2	1	P9M1183	0.000	
4	  C2	15.818	-2.782	21.535	C.2	1	P9M1183	0.000	
5	  N2	10.465	-7.500	20.699	N.3	1	P9M1183	0.000	
6	  O2	9.062	-5.572	21.279	O.2	1	P9M1183	0.000	
7	  C3	14.274	-2.569	23.094	C.2	1	P9M1183	0.000	
8	  O3	10.886	-6.286	22.788	O.2	1	P9M1183	0.000	
9	  C4	13.102	-2.491	24.033	C.3	1	P9M1183	0.000	
10	  C5	14.446	-2.950	21.803	C.2	1	P9M1183	0.000	
11	  C6	13.389	-3.486	20.921	C.2	1	P9M1183	0.000	
12	  C7	13.305	-3.126	19.576	C.2	1	P9M1183	0.000	
13	  C8	12.297	-3.682	18.784	C.2	1	P9M1183	0.000	
14	  C9	11.362	-4.603	19.294	C.2	1	P9M1183	0.000	
15	 C10	10.311	-5.152	18.358	C.3	1	P9M1183	0.000	
16	 C11	11.482	-4.946	20.651	C.2	1	P9M1183	0.000	
17	 C12	12.481	-4.398	21.435	C.2	1	P9M1183	0.000	
18	 C13	11.734	-8.256	20.630	C.3	1	P9M1183	0.000	
19	 C14	12.265	-8.294	19.201	C.3	1	P9M1183	0.000	
20	 C15	13.158	-9.527	19.163	C.3	1	P9M1183	0.000	
21	 C16	12.665	-10.457	20.256	C.3	1	P9M1183	0.000	
22	 C17	11.504	-9.740	20.940	C.3	1	P9M1183	0.000	
23	   S	10.389	-6.085	21.461	S.O2	1	P9M1183	0.000	
@<TRIPOS>BOND
1 2 3 ar
2 1 4 1
3 2 4 ar
4 5 18 1
5 3 7 ar
6 7 9 1
7 8 23 2
8 4 10 ar
9 7 10 ar
10 10 11 1
11 11 12 ar
12 12 13 ar
13 13 14 ar
14 14 15 1
15 14 16 ar
16 16 17 ar
17 11 17 ar
18 18 19 1
19 18 22 1
20 19 20 1
21 20 21 1
22 21 22 1
23 5 23 1
24 6 23 2
25 16 23 1
@<TRIPOS>SUBSTRUCTURE
1	P9M1183	1	GROUP	1 C	P9M
