# created with PyMOL 3.1.3.1
@<TRIPOS>MOLECULE
4UYF_C
35 37 2                 
SMALL
USER_CHARGES
@<TRIPOS>ATOM
1	  C1	16.219	-15.705	19.334	C.3	1	EDO1182	0.000	
2	  O1	17.401	-15.360	20.072	O.3	1	EDO1182	0.000	
3	  C2	15.857	-14.617	18.327	C.3	1	EDO1182	0.000	
4	  O2	15.449	-15.206	17.085	O.3	1	EDO1182	0.000	
5	 CL1	12.420	-12.214	18.973	Cl	2	73B1183	0.000	
6	  C1	12.901	-2.630	23.351	C.3	2	73B1183	0.000	
7	  N1	11.421	-6.910	21.443	N.pl3	2	73B1183	0.000	
8	  O1	15.862	-2.936	22.411	O.2	2	73B1183	0.000	
9	  C2	13.464	-3.924	22.768	C.3	2	73B1183	0.000	
10	  N2	14.022	-3.637	21.418	N.pl3	2	73B1183	0.000	
11	  O2	7.311	-4.088	13.106	O.co2	2	73B1183	0.000	
12	  C3	12.381	-5.035	22.793	C.3	2	73B1183	0.000	
13	  O3	6.326	-5.674	14.335	O.co2	2	73B1183	0.000	
14	  C4	12.441	-5.876	21.533	C.3	2	73B1183	0.000	
15	  C5	11.686	-8.143	20.844	C.2	2	73B1183	0.000	
16	  C6	10.692	-9.120	20.872	C.2	2	73B1183	0.000	
17	  C7	10.917	-10.365	20.295	C.2	2	73B1183	0.000	
18	  C8	12.129	-10.652	19.685	C.2	2	73B1183	0.000	
19	  C9	13.118	-9.687	19.648	C.2	2	73B1183	0.000	
20	 C10	12.900	-8.442	20.220	C.2	2	73B1183	0.000	
21	 C11	12.359	-4.936	20.366	C.2	2	73B1183	0.000	
22	 C12	11.437	-5.151	19.334	C.2	2	73B1183	0.000	
23	 C13	11.323	-4.273	18.251	C.2	2	73B1183	0.000	
24	 C14	12.156	-3.150	18.222	C.2	2	73B1183	0.000	
25	 C15	13.083	-2.915	19.241	C.2	2	73B1183	0.000	
26	 C16	13.160	-3.804	20.310	C.2	2	73B1183	0.000	
27	 C17	15.296	-3.233	21.372	C.2	2	73B1183	0.000	
28	 C18	16.014	-3.168	20.058	C.3	2	73B1183	0.000	
29	 C19	10.332	-4.489	17.145	C.2	2	73B1183	0.000	
30	 C20	9.275	-5.395	17.288	C.2	2	73B1183	0.000	
31	 C21	8.301	-5.510	16.297	C.2	2	73B1183	0.000	
32	 C22	8.351	-4.713	15.157	C.2	2	73B1183	0.000	
33	 C23	9.384	-3.796	15.014	C.2	2	73B1183	0.000	
34	 C24	10.352	-3.682	16.001	C.2	2	73B1183	0.000	
35	 C25	7.294	-4.808	14.092	C.2	2	73B1183	0.000	
@<TRIPOS>BOND
1 1 2 1
2 1 3 1
3 3 4 1
4 6 9 1
5 7 15 1
6 9 10 1
7 9 12 1
8 10 27 1
9 12 14 1
10 7 14 1
11 14 21 1
12 15 16 ar
13 15 20 ar
14 16 17 ar
15 17 18 ar
16 5 18 1
17 18 19 ar
18 19 20 ar
19 21 22 ar
20 21 26 ar
21 22 23 ar
22 23 24 ar
23 23 29 1
24 24 25 ar
25 25 26 ar
26 10 26 1
27 8 27 2
28 27 28 1
29 29 30 ar
30 29 34 ar
31 30 31 ar
32 31 32 ar
33 32 33 ar
34 32 35 1
35 33 34 ar
36 11 35 ar
37 13 35 ar
@<TRIPOS>SUBSTRUCTURE
1	EDO1182	1	GROUP	1 C	EDO
2	73B1183	5	GROUP	1 C	73B
