# created with PyMOL 3.1.3.1
@<TRIPOS>MOLECULE
4UYF_A
35 37 2                 
SMALL
USER_CHARGES
@<TRIPOS>ATOM
1	  C1	28.224	-8.830	23.375	C.3	1	EDO1190	0.000	
2	  O1	28.646	-8.929	22.011	O.3	1	EDO1190	0.000	
3	  C2	28.599	-10.100	24.127	C.3	1	EDO1190	0.000	
4	  O2	28.468	-9.882	25.530	O.3	1	EDO1190	0.000	
5	 CL1	10.660	-12.080	19.190	Cl	2	73B1191	0.000	
6	  C1	13.074	-2.676	23.575	C.3	2	73B1191	0.000	
7	  N1	11.200	-6.879	21.915	N.pl3	2	73B1191	0.000	
8	  O1	15.962	-3.211	22.611	O.2	2	73B1191	0.000	
9	  C2	13.504	-4.028	22.998	C.3	2	73B1191	0.000	
10	  N2	14.061	-3.827	21.633	N.pl3	2	73B1191	0.000	
11	  O2	7.930	-5.141	12.924	O.co2	2	73B1191	0.000	
12	  C3	12.339	-5.038	23.064	C.3	2	73B1191	0.000	
13	  O3	6.765	-6.499	14.269	O.co2	2	73B1191	0.000	
14	  C4	12.344	-5.987	21.881	C.3	2	73B1191	0.000	
15	  C5	11.140	-8.102	21.256	C.2	2	73B1191	0.000	
16	  C6	12.177	-8.588	20.456	C.2	2	73B1191	0.000	
17	  C7	12.040	-9.818	19.814	C.2	2	73B1191	0.000	
18	  C8	10.866	-10.543	19.978	C.2	2	73B1191	0.000	
19	  C9	9.837	-10.063	20.770	C.2	2	73B1191	0.000	
20	 C10	9.971	-8.840	21.411	C.2	2	73B1191	0.000	
21	 C11	12.343	-5.131	20.639	C.2	2	73B1191	0.000	
22	 C12	11.443	-5.370	19.585	C.2	2	73B1191	0.000	
23	 C13	11.406	-4.558	18.439	C.2	2	73B1191	0.000	
24	 C14	12.297	-3.487	18.357	C.2	2	73B1191	0.000	
25	 C15	13.182	-3.218	19.398	C.2	2	73B1191	0.000	
26	 C16	13.200	-4.040	20.525	C.2	2	73B1191	0.000	
27	 C17	15.358	-3.477	21.575	C.2	2	73B1191	0.000	
28	 C18	16.075	-3.442	20.255	C.3	2	73B1191	0.000	
29	 C19	10.439	-4.808	17.307	C.2	2	73B1191	0.000	
30	 C20	9.310	-5.621	17.495	C.2	2	73B1191	0.000	
31	 C21	8.447	-5.905	16.436	C.2	2	73B1191	0.000	
32	 C22	8.683	-5.372	15.171	C.2	2	73B1191	0.000	
33	 C23	9.785	-4.547	14.978	C.2	2	73B1191	0.000	
34	 C24	10.649	-4.259	16.035	C.2	2	73B1191	0.000	
35	 C25	7.761	-5.662	14.015	C.2	2	73B1191	0.000	
@<TRIPOS>BOND
1 1 2 1
2 1 3 1
3 3 4 1
4 6 9 1
5 7 15 1
6 9 10 1
7 9 12 1
8 10 27 1
9 12 14 1
10 7 14 1
11 14 21 1
12 15 16 ar
13 15 20 ar
14 16 17 ar
15 17 18 ar
16 5 18 1
17 18 19 ar
18 19 20 ar
19 21 22 ar
20 21 26 ar
21 22 23 ar
22 23 24 ar
23 23 29 1
24 24 25 ar
25 25 26 ar
26 10 26 1
27 8 27 2
28 27 28 1
29 29 30 ar
30 29 34 ar
31 30 31 ar
32 31 32 ar
33 32 33 ar
34 32 35 1
35 33 34 ar
36 11 35 ar
37 13 35 ar
@<TRIPOS>SUBSTRUCTURE
1	EDO1190	1	GROUP	1 A	EDO
2	73B1191	5	GROUP	1 A	73B
