# created with PyMOL 3.1.3.1
@<TRIPOS>MOLECULE
4ALG_A
41 43 3                 
SMALL
USER_CHARGES
@<TRIPOS>ATOM
1	   C	15.119	-10.058	6.990	C.2	1	ACT1144	0.000	
2	   O	14.879	-10.495	8.135	O.co2	1	ACT1144	0.000	
3	 CH3	16.305	-10.586	6.239	C.3	1	ACT1144	0.000	
4	 OXT	14.399	-9.188	6.459	O.co2	1	ACT1144	0.000	
5	  C1	11.906	7.583	18.557	C.3	2	GOL1145	0.000	
6	  O1	12.644	7.153	19.713	O.3	2	GOL1145	0.000	
7	  C2	10.485	7.993	18.929	C.3	2	GOL1145	0.000	
8	  O2	10.442	8.758	20.145	O.3	2	GOL1145	0.000	
9	  C3	9.650	6.745	19.134	C.3	2	GOL1145	0.000	
10	  O3	8.473	6.815	18.337	O.3	2	GOL1145	0.000	
11	  C1	12.426	-6.435	23.112	C.3	3	1GH1146	0.000	
12	  N1	9.531	-7.013	18.416	N.2	3	1GH1146	0.000	
13	  O1	13.290	-5.601	22.349	O.3	3	1GH1146	0.000	
14	  C2	12.845	-5.177	21.122	C.2	3	1GH1146	0.000	
15	  N2	11.104	-9.244	20.847	N.2	3	1GH1146	0.000	
16	  O2	7.898	-7.879	17.007	O.2	3	1GH1146	0.000	
17	  C3	11.860	-5.795	20.405	C.2	3	1GH1146	0.000	
18	  N3	9.138	-5.987	16.501	N.2	3	1GH1146	0.000	
19	  O3	15.723	-2.389	22.984	O.2	3	1GH1146	0.000	
20	  C4	11.453	-5.292	19.145	C.2	3	1GH1146	0.000	
21	  N4	11.784	-3.573	17.427	N.2	3	1GH1146	0.000	
22	  C5	10.429	-5.903	18.354	C.2	3	1GH1146	0.000	
23	  N5	16.582	-2.533	21.860	N.2	3	1GH1146	0.000	
24	  C6	9.461	-8.018	19.504	C.3	3	1GH1146	0.000	
25	  C7	8.919	-7.429	20.803	C.3	3	1GH1146	0.000	
26	  C8	10.796	-8.735	19.644	C.2	3	1GH1146	0.000	
27	  C9	11.650	-8.837	18.555	C.2	3	1GH1146	0.000	
28	 C10	12.860	-9.486	18.716	C.2	3	1GH1146	0.000	
29	 C11	13.190	-10.016	19.941	C.2	3	1GH1146	0.000	
30	 C12	12.288	-9.880	20.969	C.2	3	1GH1146	0.000	
31	 C13	8.757	-7.050	17.264	C.2	3	1GH1146	0.000	
32	 C14	10.151	-5.283	17.131	C.2	3	1GH1146	0.000	
33	 C15	10.833	-4.141	16.725	C.2	3	1GH1146	0.000	
34	 C16	12.094	-4.136	18.641	C.2	3	1GH1146	0.000	
35	 C17	13.108	-3.525	19.408	C.2	3	1GH1146	0.000	
36	 C18	13.473	-4.017	20.636	C.2	3	1GH1146	0.000	
37	 C19	14.558	-3.357	21.391	C.2	3	1GH1146	0.000	
38	 C20	15.870	-3.110	20.934	C.2	3	1GH1146	0.000	
39	 C21	16.493	-3.404	19.611	C.3	3	1GH1146	0.000	
40	 C22	14.528	-2.905	22.662	C.2	3	1GH1146	0.000	
41	 C23	13.481	-2.846	23.709	C.3	3	1GH1146	0.000	
@<TRIPOS>BOND
1 1 2 ar
2 1 3 1
3 1 4 ar
4 5 6 1
5 5 7 1
6 7 8 1
7 7 9 1
8 9 10 1
9 12 22 ar
10 12 24 1
11 11 13 1
12 13 14 1
13 15 30 ar
14 16 31 2
15 14 17 ar
16 18 32 ar
17 19 23 ar
18 17 20 ar
19 21 34 ar
20 20 22 ar
21 23 38 ar
22 24 25 1
23 24 26 1
24 15 26 ar
25 26 27 ar
26 27 28 ar
27 28 29 ar
28 29 30 ar
29 12 31 ar
30 18 31 ar
31 22 32 ar
32 32 33 ar
33 21 33 ar
34 20 34 ar
35 34 35 ar
36 35 36 ar
37 14 36 ar
38 36 37 1
39 37 38 ar
40 37 40 ar
41 38 39 1
42 19 40 ar
43 40 41 1
@<TRIPOS>SUBSTRUCTURE
1	ACT1144	1	GROUP	1 A	ACT
2	GOL1145	5	GROUP	1 A	GOL
3	1GH1146	11	GROUP	1 A	1GH
