# created with PyMOL 3.1.3.1
@<TRIPOS>MOLECULE
4ALH_C
13 14 1                 
SMALL
USER_CHARGES
@<TRIPOS>ATOM
1	   N	15.617	-2.677	22.421	N.2	1	A9P1183	0.000	
2	   O	14.588	-2.871	23.381	O.2	1	A9P1183	0.000	
3	  C2	12.346	-3.706	23.602	C.3	1	A9P1183	0.000	
4	  C3	13.536	-3.419	22.753	C.2	1	A9P1183	0.000	
5	  C4	15.142	-3.105	21.286	C.2	1	A9P1183	0.000	
6	  C5	16.007	-3.026	20.069	C.3	1	A9P1183	0.000	
7	  C6	13.828	-3.591	21.428	C.2	1	A9P1183	0.000	
8	  C7	12.932	-4.164	20.380	C.2	1	A9P1183	0.000	
9	  C8	12.379	-5.436	20.538	C.2	1	A9P1183	0.000	
10	  C9	11.558	-5.982	19.553	C.2	1	A9P1183	0.000	
11	 C10	11.279	-5.268	18.410	C.2	1	A9P1183	0.000	
12	 C11	11.820	-3.994	18.239	C.2	1	A9P1183	0.000	
13	 C12	12.644	-3.443	19.220	C.2	1	A9P1183	0.000	
@<TRIPOS>BOND
1 1 2 ar
2 2 4 ar
3 3 4 1
4 1 5 ar
5 5 7 ar
6 5 6 1
7 4 7 ar
8 7 8 1
9 8 9 ar
10 8 13 ar
11 9 10 ar
12 10 11 ar
13 11 12 ar
14 12 13 ar
@<TRIPOS>SUBSTRUCTURE
1	A9P1183	1	GROUP	1 C	A9P
