# created with PyMOL 3.1.3.1
@<TRIPOS>MOLECULE
4UYF_B
35 37 2                 
SMALL
USER_CHARGES
@<TRIPOS>ATOM
1	  C1	28.134	-2.317	24.497	C.3	1	EDO1184	0.000	
2	  O1	28.504	-1.978	23.153	O.3	1	EDO1184	0.000	
3	  C2	28.897	-3.501	25.042	C.3	1	EDO1184	0.000	
4	  O2	30.276	-3.498	24.651	O.3	1	EDO1184	0.000	
5	 CL1	10.789	-12.210	19.248	Cl	2	73B1185	0.000	
6	  C1	13.060	-2.654	23.471	C.3	2	73B1185	0.000	
7	  N1	11.199	-6.902	21.861	N.pl3	2	73B1185	0.000	
8	  O1	15.985	-3.234	22.478	O.2	2	73B1185	0.000	
9	  C2	13.509	-4.015	22.926	C.3	2	73B1185	0.000	
10	  N2	14.062	-3.849	21.549	N.pl3	2	73B1185	0.000	
11	  O2	8.177	-5.580	12.770	O.co2	2	73B1185	0.000	
12	  C3	12.361	-5.047	23.020	C.3	2	73B1185	0.000	
13	  O3	6.654	-6.363	14.223	O.co2	2	73B1185	0.000	
14	  C4	12.336	-5.996	21.831	C.3	2	73B1185	0.000	
15	  C5	11.177	-8.147	21.234	C.2	2	73B1185	0.000	
16	  C6	12.250	-8.669	20.501	C.2	2	73B1185	0.000	
17	  C7	12.130	-9.922	19.896	C.2	2	73B1185	0.000	
18	  C8	10.953	-10.651	20.014	C.2	2	73B1185	0.000	
19	  C9	9.887	-10.132	20.741	C.2	2	73B1185	0.000	
20	 C10	9.998	-8.885	21.344	C.2	2	73B1185	0.000	
21	 C11	12.330	-5.146	20.581	C.2	2	73B1185	0.000	
22	 C12	11.426	-5.392	19.531	C.2	2	73B1185	0.000	
23	 C13	11.388	-4.588	18.376	C.2	2	73B1185	0.000	
24	 C14	12.292	-3.531	18.276	C.2	2	73B1185	0.000	
25	 C15	13.178	-3.258	19.317	C.2	2	73B1185	0.000	
26	 C16	13.195	-4.067	20.449	C.2	2	73B1185	0.000	
27	 C17	15.362	-3.515	21.461	C.2	2	73B1185	0.000	
28	 C18	16.058	-3.499	20.129	C.3	2	73B1185	0.000	
29	 C19	10.425	-4.840	17.241	C.2	2	73B1185	0.000	
30	 C20	9.276	-5.612	17.436	C.2	2	73B1185	0.000	
31	 C21	8.437	-5.940	16.367	C.2	2	73B1185	0.000	
32	 C22	8.725	-5.486	15.082	C.2	2	73B1185	0.000	
33	 C23	9.856	-4.701	14.879	C.2	2	73B1185	0.000	
34	 C24	10.694	-4.380	15.944	C.2	2	73B1185	0.000	
35	 C25	7.832	-5.821	13.915	C.2	2	73B1185	0.000	
@<TRIPOS>BOND
1 1 2 1
2 1 3 1
3 3 4 1
4 6 9 1
5 7 15 1
6 9 10 1
7 9 12 1
8 10 27 1
9 12 14 1
10 7 14 1
11 14 21 1
12 15 16 ar
13 15 20 ar
14 16 17 ar
15 17 18 ar
16 5 18 1
17 18 19 ar
18 19 20 ar
19 21 22 ar
20 21 26 ar
21 22 23 ar
22 23 24 ar
23 23 29 1
24 24 25 ar
25 25 26 ar
26 10 26 1
27 8 27 2
28 27 28 1
29 29 30 ar
30 29 34 ar
31 30 31 ar
32 31 32 ar
33 32 33 ar
34 32 35 1
35 33 34 ar
36 11 35 ar
37 13 35 ar
@<TRIPOS>SUBSTRUCTURE
1	EDO1184	1	GROUP	1 B	EDO
2	73B1185	5	GROUP	1 B	73B
