# created with PyMOL 3.1.3.1
@<TRIPOS>MOLECULE
4A9H_AB
36 36 4                 
SMALL
USER_CHARGES
@<TRIPOS>ATOM
1	  C1	18.853	-20.093	10.347	C.3	1	EDO1187	0.000	
2	  O1	18.994	-19.268	9.188	O.3	1	EDO1187	0.000	
3	  C2	20.207	-20.649	10.677	C.3	1	EDO1187	0.000	
4	  O2	21.153	-19.594	10.606	O.3	1	EDO1187	0.000	
5	  C1	13.104	-9.808	20.184	C.3	2	EDO1188	0.000	
6	  O1	12.962	-10.599	21.361	O.3	2	EDO1188	0.000	
7	  C2	11.733	-9.406	19.696	C.3	2	EDO1188	0.000	
8	  O2	11.293	-10.418	18.787	O.3	2	EDO1188	0.000	
9	   N	13.996	-3.777	21.660	N.pl3	3	TVP1189	0.000	
10	   O	15.974	-3.133	22.517	O.2	3	TVP1189	0.000	
11	  C1	13.016	-2.534	23.572	C.3	3	TVP1189	0.000	
12	  C2	13.485	-3.885	23.046	C.3	3	TVP1189	0.000	
13	  C3	12.399	-4.955	23.098	C.3	3	TVP1189	0.000	
14	  C4	12.445	-6.004	22.007	C.3	3	TVP1189	0.000	
15	  C5	12.378	-5.284	20.690	C.2	3	TVP1189	0.000	
16	  C6	11.514	-5.648	19.664	C.2	3	TVP1189	0.000	
17	  C7	11.444	-4.896	18.489	C.2	3	TVP1189	0.000	
18	  C8	12.211	-3.764	18.359	C.2	3	TVP1189	0.000	
19	  C9	13.065	-3.366	19.394	C.2	3	TVP1189	0.000	
20	 C10	13.121	-4.111	20.569	C.2	3	TVP1189	0.000	
21	 C11	15.320	-3.412	21.536	C.2	3	TVP1189	0.000	
22	 C12	15.957	-3.361	20.165	C.3	3	TVP1189	0.000	
23	   N	30.681	-4.306	39.247	N.pl3	4	TVP1183	0.000	
24	   O	30.041	-4.692	37.125	O.2	4	TVP1183	0.000	
25	  C1	29.070	-6.063	39.969	C.3	4	TVP1183	0.000	
26	  C2	29.287	-4.574	39.674	C.3	4	TVP1183	0.000	
27	  C3	28.944	-3.674	40.861	C.3	4	TVP1183	0.000	
28	  C4	29.852	-2.484	41.108	C.3	4	TVP1183	0.000	
29	  C5	31.277	-2.959	41.152	C.2	4	TVP1183	0.000	
30	  C6	32.193	-2.557	42.126	C.2	4	TVP1183	0.000	
31	  C7	33.477	-3.079	42.148	C.2	4	TVP1183	0.000	
32	  C8	33.854	-4.015	41.214	C.2	4	TVP1183	0.000	
33	  C9	32.947	-4.446	40.236	C.2	4	TVP1183	0.000	
34	 C10	31.654	-3.927	40.224	C.2	4	TVP1183	0.000	
35	 C11	30.936	-4.424	37.903	C.2	4	TVP1183	0.000	
36	 C12	32.336	-4.224	37.415	C.3	4	TVP1183	0.000	
@<TRIPOS>BOND
1 1 2 1
2 1 3 1
3 3 4 1
4 5 6 1
5 5 7 1
6 7 8 1
7 9 12 1
8 9 20 1
9 10 21 2
10 11 12 1
11 12 13 1
12 13 14 1
13 14 15 1
14 15 16 ar
15 16 17 ar
16 17 18 ar
17 18 19 ar
18 15 20 ar
19 19 20 ar
20 9 21 1
21 21 22 1
22 23 26 1
23 23 34 1
24 24 35 2
25 25 26 1
26 26 27 1
27 27 28 1
28 28 29 1
29 29 30 ar
30 30 31 ar
31 31 32 ar
32 32 33 ar
33 29 34 ar
34 33 34 ar
35 23 35 1
36 35 36 1
@<TRIPOS>SUBSTRUCTURE
1	EDO1187	1	GROUP	1 A	EDO
2	EDO1188	5	GROUP	1 A	EDO
3	TVP1189	9	GROUP	1 A	TVP
4	TVP1183	23	GROUP	1 B	TVP
