# created with PyMOL 3.1.3.1
@<TRIPOS>MOLECULE
3NX7_A
20 20 1                 
SMALL
USER_CHARGES
@<TRIPOS>ATOM
1	  C1	3.550	-7.088	5.865	C.2	1	NHK0	0.000	
2	  N1	1.467	-2.367	5.060	N.2	1	NHK0	0.000	
3	  O1	3.166	-3.064	3.755	O.2	1	NHK0	0.000	
4	  S1	1.270	-6.372	4.789	S.O2	1	NHK0	0.000	
5	  C2	4.525	-6.973	6.858	C.2	1	NHK0	0.000	
6	  N2	1.625	-5.471	3.576	N.3	1	NHK0	0.000	
7	  O2	2.271	-1.460	5.741	O.2	1	NHK0	0.000	
8	  C3	2.418	-6.253	5.904	C.2	1	NHK0	0.000	
9	  O3	1.192	-7.756	4.392	O.2	1	NHK0	0.000	
10	  C4	4.366	-6.056	7.905	C.2	1	NHK0	0.000	
11	  O4	0.021	-5.915	5.362	O.2	1	NHK0	0.000	
12	  C5	2.262	-5.344	6.954	C.2	1	NHK0	0.000	
13	  O5	5.285	-5.922	8.922	O.3	1	NHK0	0.000	
14	  C6	2.271	-5.506	1.208	C.3	1	NHK0	0.000	
15	  O6	1.072	-6.163	0.783	O.3	1	NHK0	0.000	
16	  C7	3.229	-5.248	7.948	C.2	1	NHK0	0.000	
17	  C8	2.627	-5.946	2.627	C.3	1	NHK0	0.000	
18	  C9	1.990	-3.128	4.087	C.2	1	NHK0	0.000	
19	 C10	1.058	-4.125	3.425	C.3	1	NHK0	0.000	
20	 C11	6.351	-6.829	9.207	C.3	1	NHK0	0.000	
@<TRIPOS>BOND
1 2 7 ar
2 4 6 1
3 4 8 1
4 4 9 2
5 1 5 ar
6 6 17 1
7 6 19 1
8 1 8 ar
9 8 12 ar
10 5 10 ar
11 10 13 1
12 4 11 2
13 12 16 ar
14 13 20 1
15 14 15 1
16 10 16 ar
17 14 17 1
18 2 18 ar
19 3 18 ar
20 18 19 1
@<TRIPOS>SUBSTRUCTURE
1	NHK0	1	GROUP	1 A	NHK
