# created with PyMOL 3.1.3.1
@<TRIPOS>MOLECULE
3N2V_A
24 25 1                 
SMALL
USER_CHARGES
@<TRIPOS>ATOM
1	  O1	2.321	-1.425	5.803	O.2	1	JT50	0.000	
2	  N2	1.375	-1.995	5.038	N.2	1	JT50	0.000	
3	  C3	1.775	-2.589	3.952	C.2	1	JT50	0.000	
4	  C4	0.618	-3.244	3.185	C.3	1	JT50	0.000	
5	  O5	2.976	-2.599	3.671	O.2	1	JT50	0.000	
6	  N6	1.067	-4.602	3.062	N.3	1	JT50	0.000	
7	  S7	0.795	-5.749	4.057	S.O2	1	JT50	0.000	
8	  C8	2.142	-4.865	2.051	C.3	1	JT50	0.000	
9	  C9	1.664	-4.949	0.623	C.3	1	JT50	0.000	
10	 O10	0.926	-3.763	0.285	O.3	1	JT50	0.000	
11	 O11	0.636	-7.026	3.324	O.2	1	JT50	0.000	
12	 C12	2.054	-5.919	5.080	C.2	1	JT50	0.000	
13	 O13	-0.370	-5.553	4.924	O.2	1	JT50	0.000	
14	 C14	3.171	-6.669	4.704	C.2	1	JT50	0.000	
15	 C15	4.257	-6.886	5.524	C.2	1	JT50	0.000	
16	 C16	4.191	-6.357	6.837	C.2	1	JT50	0.000	
17	 C17	3.101	-5.557	7.222	C.2	1	JT50	0.000	
18	 C18	2.030	-5.322	6.353	C.2	1	JT50	0.000	
19	 C19	5.324	-6.642	7.766	C.2	1	JT50	0.000	
20	 C20	5.031	-6.944	9.136	C.2	1	JT50	0.000	
21	 C21	6.078	-7.219	10.051	C.2	1	JT50	0.000	
22	 C22	7.419	-7.289	9.601	C.2	1	JT50	0.000	
23	 C23	7.684	-7.075	8.227	C.2	1	JT50	0.000	
24	 C24	6.643	-6.770	7.327	C.2	1	JT50	0.000	
@<TRIPOS>BOND
1 1 2 ar
2 2 3 ar
3 3 4 1
4 3 5 ar
5 4 6 1
6 6 7 1
7 7 11 2
8 7 12 1
9 7 13 2
10 6 8 1
11 8 9 1
12 9 10 1
13 12 14 ar
14 12 18 ar
15 14 15 ar
16 15 16 ar
17 16 17 ar
18 16 19 1
19 17 18 ar
20 19 20 ar
21 19 24 ar
22 20 21 ar
23 21 22 ar
24 22 23 ar
25 23 24 ar
@<TRIPOS>SUBSTRUCTURE
1	JT50	1	GROUP	1 A	JT5
