# created with PyMOL 3.1.3.1
@<TRIPOS>MOLECULE
1JIZ_B
27 28 1                 
SMALL
USER_CHARGES
@<TRIPOS>ATOM
1	  CA	0.893	-4.010	3.335	C.3	1	CGS999	0.000	
2	  CB	0.242	-3.313	2.087	C.3	1	CGS999	0.000	
3	 CG1	-0.923	-4.158	1.510	C.3	1	CGS999	0.000	
4	 CG2	-0.263	-1.872	2.295	C.3	1	CGS999	0.000	
5	  CD	3.151	-7.465	0.780	C.2	1	CGS999	0.000	
6	 CD1	2.939	-5.575	8.002	C.2	1	CGS999	0.000	
7	 CD2	4.462	-7.034	6.798	C.2	1	CGS999	0.000	
8	  CE	2.929	-8.004	-0.496	C.2	1	CGS999	0.000	
9	 CE1	2.036	-5.640	6.959	C.2	1	CGS999	0.000	
10	 CE2	3.568	-7.111	5.745	C.2	1	CGS999	0.000	
11	  CZ	2.191	-7.268	-1.436	C.2	1	CGS999	0.000	
12	  N1	1.592	-5.360	3.286	N.3	1	CGS999	0.000	
13	  S4	1.210	-6.552	4.412	S.O2	1	CGS999	0.000	
14	  C5	2.620	-6.190	1.081	C.2	1	CGS999	0.000	
15	 N11	1.677	-6.056	-1.176	N.2	1	CGS999	0.000	
16	 C17	2.308	-6.422	5.764	C.2	1	CGS999	0.000	
17	 C20	4.174	-6.264	7.960	C.2	1	CGS999	0.000	
18	 O27	5.070	-6.201	8.994	O.3	1	CGS999	0.000	
19	 O32	-0.144	-6.302	4.876	O.2	1	CGS999	0.000	
20	 O33	1.425	-7.848	3.824	O.2	1	CGS999	0.000	
21	 C34	1.910	-3.013	3.987	C.2	1	CGS999	0.000	
22	 N35	1.538	-2.529	5.253	N.2	1	CGS999	0.000	
23	 O47	2.970	-2.627	3.506	O.2	1	CGS999	0.000	
24	 O48	2.310	-1.687	5.897	O.2	1	CGS999	0.000	
25	  CC	2.805	-5.521	2.439	C.3	1	CGS999	0.000	
26	 COM	6.249	-6.996	9.041	C.3	1	CGS999	0.000	
27	  CY	1.894	-5.549	0.048	C.2	1	CGS999	0.000	
@<TRIPOS>BOND
1 1 2 1
2 1 21 1
3 2 3 1
4 2 4 1
5 5 8 ar
6 6 9 ar
7 7 17 ar
8 8 11 ar
9 7 10 ar
10 11 15 ar
11 1 12 1
12 12 13 1
13 12 25 1
14 13 16 1
15 13 19 2
16 13 20 2
17 5 14 ar
18 14 27 ar
19 15 27 ar
20 9 16 ar
21 10 16 ar
22 6 17 ar
23 17 18 1
24 18 26 1
25 21 22 ar
26 21 23 ar
27 22 24 ar
28 14 25 1
@<TRIPOS>SUBSTRUCTURE
1	CGS999	1	GROUP	1 B	CGS
