# created with PyMOL 3.1.3.1
@<TRIPOS>MOLECULE
3F17_A
21 22 1                 
SMALL
USER_CHARGES
@<TRIPOS>ATOM
1	  C1	5.314	-6.741	7.832	C.2	1	HS40	0.000	
2	  N1	0.850	-4.760	3.046	N.3	1	HS40	0.000	
3	  O1	2.899	-2.716	3.579	O.2	1	HS40	0.000	
4	  S1	0.804	-5.948	4.115	S.O2	1	HS40	0.000	
5	  C2	4.173	-6.458	6.918	C.2	1	HS40	0.000	
6	  N2	1.429	-2.158	5.154	N.2	1	HS40	0.000	
7	  O2	2.414	-1.511	5.861	O.2	1	HS40	0.000	
8	  C3	5.009	-7.074	9.155	C.2	1	HS40	0.000	
9	  O3	0.518	-7.138	3.444	O.2	1	HS40	0.000	
10	  C4	6.641	-6.789	7.419	C.2	1	HS40	0.000	
11	  O4	-0.195	-5.407	5.009	O.2	1	HS40	0.000	
12	  C5	4.143	-7.052	5.658	C.2	1	HS40	0.000	
13	  C6	6.013	-7.389	10.059	C.2	1	HS40	0.000	
14	  C7	7.652	-7.104	8.329	C.2	1	HS40	0.000	
15	  C8	3.080	-5.688	7.328	C.2	1	HS40	0.000	
16	  C9	7.340	-7.404	9.648	C.2	1	HS40	0.000	
17	 C10	3.058	-6.839	4.813	C.2	1	HS40	0.000	
18	 C11	1.989	-5.476	6.480	C.2	1	HS40	0.000	
19	 C12	0.596	-3.368	3.294	C.3	1	HS40	0.000	
20	 C13	1.965	-6.063	5.211	C.2	1	HS40	0.000	
21	 C14	1.750	-2.728	4.016	C.2	1	HS40	0.000	
@<TRIPOS>BOND
1 1 8 ar
2 1 10 ar
3 2 19 1
4 2 4 1
5 4 9 2
6 4 20 1
7 1 5 1
8 6 7 ar
9 10 14 ar
10 4 11 2
11 5 12 ar
12 8 13 ar
13 14 16 ar
14 5 15 ar
15 13 16 ar
16 12 17 ar
17 15 18 ar
18 19 21 1
19 17 20 ar
20 18 20 ar
21 3 21 ar
22 6 21 ar
@<TRIPOS>SUBSTRUCTURE
1	HS40	1	GROUP	1 A	HS4
