# created with PyMOL 3.1.3.1
@<TRIPOS>MOLECULE
3F1A_A
15 15 1                 
SMALL
USER_CHARGES
@<TRIPOS>ATOM
1	  C1	2.348	-5.537	7.087	C.2	1	HS70	0.000	
2	  N1	1.425	-5.365	3.559	N.3	1	HS70	0.000	
3	  O1	0.047	-5.929	5.547	O.2	1	HS70	0.000	
4	  S1	1.244	-6.308	4.841	S.O2	1	HS70	0.000	
5	  C2	3.433	-5.415	7.954	C.2	1	HS70	0.000	
6	  N2	1.499	-2.395	5.265	N.2	1	HS70	0.000	
7	  O2	1.194	-7.665	4.374	O.2	1	HS70	0.000	
8	  C3	2.497	-6.145	5.835	C.2	1	HS70	0.000	
9	  O3	3.093	-2.988	3.817	O.2	1	HS70	0.000	
10	  C4	4.685	-5.899	7.575	C.2	1	HS70	0.000	
11	  O4	2.394	-1.548	5.907	O.2	1	HS70	0.000	
12	  C5	4.851	-6.501	6.328	C.2	1	HS70	0.000	
13	  C6	3.757	-6.625	5.466	C.2	1	HS70	0.000	
14	  C7	1.940	-3.088	4.224	C.2	1	HS70	0.000	
15	  C8	0.941	-4.000	3.555	C.3	1	HS70	0.000	
@<TRIPOS>BOND
1 1 5 ar
2 2 4 1
3 3 4 2
4 4 7 2
5 4 8 1
6 6 11 ar
7 1 8 ar
8 8 13 ar
9 9 14 ar
10 5 10 ar
11 10 12 ar
12 12 13 ar
13 6 14 ar
14 14 15 1
15 2 15 1
@<TRIPOS>SUBSTRUCTURE
1	HS70	1	GROUP	1 A	HS7
