# created with PyMOL 3.1.3.1
@<TRIPOS>MOLECULE
3LK8_A
17 17 1                 
SMALL
USER_CHARGES
@<TRIPOS>ATOM
1	  C1	3.664	-6.984	5.925	C.2	1	Z790	0.000	
2	  N1	1.585	-5.496	3.486	N.3	1	Z790	0.000	
3	  O1	0.096	-5.962	5.361	O.2	1	Z790	0.000	
4	  S1	1.370	-6.376	4.791	S.O2	1	Z790	0.000	
5	  C2	4.581	-6.885	6.975	C.2	1	Z790	0.000	
6	  N2	1.407	-2.427	5.113	N.2	1	Z790	0.000	
7	  O2	1.301	-7.777	4.465	O.2	1	Z790	0.000	
8	  C3	2.486	-6.233	5.945	C.2	1	Z790	0.000	
9	  O3	5.200	-5.917	9.110	O.3	1	Z790	0.000	
10	  C4	4.322	-6.031	8.061	C.2	1	Z790	0.000	
11	  O4	3.141	-3.105	3.839	O.2	1	Z790	0.000	
12	  C5	3.148	-5.298	8.095	C.2	1	Z790	0.000	
13	  O5	2.207	-1.568	5.849	O.2	1	Z790	0.000	
14	  C6	2.233	-5.397	7.044	C.2	1	Z790	0.000	
15	  C7	1.045	-4.156	3.431	C.3	1	Z790	0.000	
16	  C8	1.960	-3.180	4.149	C.2	1	Z790	0.000	
17	  C9	6.265	-6.844	9.301	C.3	1	Z790	0.000	
@<TRIPOS>BOND
1 2 4 1
2 3 4 2
3 4 7 2
4 4 8 1
5 1 5 ar
6 6 13 ar
7 1 8 ar
8 8 14 ar
9 9 17 1
10 5 10 ar
11 9 10 1
12 11 16 ar
13 10 12 ar
14 12 14 ar
15 2 15 1
16 6 16 ar
17 15 16 1
@<TRIPOS>SUBSTRUCTURE
1	Z790	1	GROUP	1 A	Z79
