# created with PyMOL 3.1.3.1
@<TRIPOS>MOLECULE
4H76_A
67 61 8                 
SMALL
USER_CHARGES
@<TRIPOS>ATOM
1	  N2	1.365	-2.209	5.046	N.2	1	10B306	0.000	
2	  O2	2.805	-2.328	3.402	O.2	1	10B306	0.000	
3	  O7	2.392	-1.709	5.835	O.2	1	10B306	0.000	
4	 C11	1.711	-2.616	3.851	C.2	1	10B306	0.000	
5	 N12	1.304	-4.829	3.097	N.3	1	10B306	0.000	
6	 O13	0.642	-7.117	3.393	O.2	1	10B306	0.000	
7	 S13	0.860	-5.889	4.106	S.O2	1	10B306	0.000	
8	 C14	3.204	-6.854	4.762	C.2	1	10B306	0.000	
9	 O14	-0.308	-5.507	4.834	O.2	1	10B306	0.000	
10	 C15	3.100	-5.792	7.327	C.2	1	10B306	0.000	
11	 O15	2.228	-5.123	2.282	O.3	1	10B306	0.000	
12	 C16	4.222	-6.522	6.930	C.2	1	10B306	0.000	
13	 C17	4.261	-7.066	5.644	C.2	1	10B306	0.000	
14	 C21	5.339	-6.783	7.884	C.2	1	10B306	0.000	
15	 C23	7.655	-7.053	8.434	C.2	1	10B306	0.000	
16	 C24	7.317	-7.354	9.745	C.2	1	10B306	0.000	
17	 C25	5.987	-7.391	10.138	C.2	1	10B306	0.000	
18	 C26	5.010	-7.111	9.199	C.2	1	10B306	0.000	
19	 C28	2.075	-6.118	5.146	C.2	1	10B306	0.000	
20	 C29	2.033	-5.583	6.440	C.2	1	10B306	0.000	
21	 C30	6.671	-6.769	7.501	C.2	1	10B306	0.000	
22	 C31	0.721	-3.491	3.112	C.3	1	10B306	0.000	
23	 C67	2.035	-5.124	0.867	C.3	1	10B306	0.000	
24	 C68	2.761	-6.337	0.309	C.3	1	10B306	0.000	
25	 C69	2.609	-3.871	0.225	C.3	1	10B306	0.000	
26	  C1	22.712	7.485	7.691	C.3	2	PGO307	0.000	
27	  O1	21.354	7.664	7.278	O.3	2	PGO307	0.000	
28	  C2	22.770	7.611	9.207	C.3	2	PGO307	0.000	
29	  O2	22.668	6.300	9.777	O.3	2	PGO307	0.000	
30	  C3	24.040	8.322	9.666	C.3	2	PGO307	0.000	
31	  C1	-1.537	4.944	2.342	C.3	3	PGO308	0.000	
32	  O1	-0.740	4.153	1.456	O.3	3	PGO308	0.000	
33	  C2	-2.497	4.030	3.103	C.3	3	PGO308	0.000	
34	  O2	-2.611	2.754	2.453	O.3	3	PGO308	0.000	
35	  C3	-2.040	3.829	4.544	C.3	3	PGO308	0.000	
36	  C1	1.018	12.299	4.167	C.3	4	PGO309	0.000	
37	  O1	1.631	11.050	3.830	O.3	4	PGO309	0.000	
38	  C2	-0.057	12.078	5.230	C.3	4	PGO309	0.000	
39	  O2	-1.302	12.656	4.810	O.3	4	PGO309	0.000	
40	  C3	-0.280	10.597	5.459	C.3	4	PGO309	0.000	
41	  C1	5.370	2.996	2.059	C.3	5	PEG310	0.000	
42	  O1	5.632	1.989	1.150	O.3	5	PEG310	0.000	
43	  C2	5.213	4.398	1.570	C.3	5	PEG310	0.000	
44	  O2	5.925	5.385	2.225	O.3	5	PEG310	0.000	
45	  C3	6.608	6.333	1.483	C.3	5	PEG310	0.000	
46	  C4	7.692	7.114	2.155	C.3	5	PEG310	0.000	
47	  O4	8.451	7.979	1.385	O.3	5	PEG310	0.000	
48	  C1	-17.083	-6.161	6.523	C.3	6	PEG311	0.000	
49	  O1	-15.801	-6.570	6.216	O.3	6	PEG311	0.000	
50	  C2	-17.355	-5.630	7.893	C.3	6	PEG311	0.000	
51	  O2	-17.748	-4.311	8.052	O.3	6	PEG311	0.000	
52	  C3	-16.882	-3.257	7.843	C.3	6	PEG311	0.000	
53	  C4	-16.940	-2.486	6.561	C.3	6	PEG311	0.000	
54	  O4	-16.618	-3.184	5.407	O.3	6	PEG311	0.000	
55	  C1	-2.117	-16.258	24.350	C.3	7	PEG312	0.000	
56	  O1	-2.195	-17.590	24.008	O.3	7	PEG312	0.000	
57	  C2	-0.824	-15.565	24.087	C.3	7	PEG312	0.000	
58	  O2	-0.018	-15.282	25.165	O.3	7	PEG312	0.000	
59	  C3	-0.120	-14.048	25.764	C.3	7	PEG312	0.000	
60	  C4	0.838	-13.752	26.867	C.3	7	PEG312	0.000	
61	  O4	0.650	-12.591	27.591	O.3	7	PEG312	0.000	
62	  C1	2.536	17.707	10.854	C.3	8	GOL313	0.000	
63	  O1	2.000	18.188	12.069	O.3	8	GOL313	0.000	
64	  C2	3.682	16.741	11.149	C.3	8	GOL313	0.000	
65	  O2	4.204	16.202	9.948	O.3	8	GOL313	0.000	
66	  C3	4.791	17.493	11.873	C.3	8	GOL313	0.000	
67	  O3	4.581	17.535	13.270	O.3	8	GOL313	0.000	
@<TRIPOS>BOND
1 1 3 ar
2 1 4 ar
3 2 4 ar
4 5 11 1
5 5 22 1
6 5 7 1
7 6 7 2
8 7 19 1
9 8 13 ar
10 7 9 2
11 10 20 ar
12 11 23 1
13 10 12 ar
14 12 14 1
15 12 13 ar
16 14 18 ar
17 14 21 ar
18 15 21 ar
19 15 16 ar
20 16 17 ar
21 17 18 ar
22 8 19 ar
23 19 20 ar
24 4 22 1
25 23 24 1
26 23 25 1
27 26 27 1
28 26 28 1
29 28 29 1
30 28 30 1
31 31 32 1
32 31 33 1
33 33 34 1
34 33 35 1
35 36 37 1
36 36 38 1
37 38 39 1
38 38 40 1
39 41 42 1
40 41 43 1
41 43 44 1
42 44 45 1
43 45 46 1
44 46 47 1
45 48 49 1
46 48 50 1
47 50 51 1
48 51 52 1
49 52 53 1
50 53 54 1
51 55 56 1
52 55 57 1
53 57 58 1
54 58 59 1
55 59 60 1
56 60 61 1
57 62 63 1
58 62 64 1
59 64 65 1
60 64 66 1
61 66 67 1
@<TRIPOS>SUBSTRUCTURE
1	10B306	1	GROUP	1 A	10B
2	PGO307	26	GROUP	1 A	PGO
3	PGO308	31	GROUP	1 A	PGO
4	PGO309	36	GROUP	1 A	PGO
5	PEG310	41	GROUP	1 A	PEG
6	PEG311	48	GROUP	1 A	PEG
7	PEG312	55	GROUP	1 A	PEG
8	GOL313	62	GROUP	1 A	GOL
