# created with PyMOL 3.1.3.1
@<TRIPOS>MOLECULE
3F15_A
22 22 1                 
SMALL
USER_CHARGES
@<TRIPOS>ATOM
1	  C1	3.732	-6.974	5.922	C.2	1	HS10	0.000	
2	  N1	1.765	-5.337	3.678	N.3	1	HS10	0.000	
3	  O1	1.415	-7.754	4.477	O.2	1	HS10	0.000	
4	  S1	1.396	-6.370	4.888	S.O2	1	HS10	0.000	
5	  C2	4.723	-6.887	6.914	C.2	1	HS10	0.000	
6	  N2	1.409	-2.340	5.160	N.2	1	HS10	0.000	
7	  O2	0.124	-6.043	5.473	O.2	1	HS10	0.000	
8	  C3	2.542	-6.224	6.008	C.2	1	HS10	0.000	
9	  O3	5.458	-5.928	9.025	O.3	1	HS10	0.000	
10	  C4	4.526	-6.043	8.012	C.2	1	HS10	0.000	
11	  O4	1.331	-8.577	1.809	O.3	1	HS10	0.000	
12	  C5	2.349	-5.389	7.114	C.2	1	HS10	0.000	
13	  O5	2.288	-1.422	5.741	O.2	1	HS10	0.000	
14	  C6	1.435	-6.264	1.230	C.3	1	HS10	0.000	
15	  O6	0.676	-5.126	0.832	O.3	1	HS10	0.000	
16	  C7	3.336	-5.299	8.105	C.2	1	HS10	0.000	
17	  O7	3.063	-3.101	3.871	O.2	1	HS10	0.000	
18	  C8	2.316	-5.951	2.438	C.3	1	HS10	0.000	
19	  C9	1.877	-3.140	4.208	C.2	1	HS10	0.000	
20	 C10	6.440	-6.940	9.285	C.3	1	HS10	0.000	
21	 C11	0.918	-4.137	3.573	C.3	1	HS10	0.000	
22	 C12	0.514	-7.432	1.548	C.3	1	HS10	0.000	
@<TRIPOS>BOND
1 2 4 1
2 2 18 1
3 2 21 1
4 3 4 2
5 4 8 1
6 1 5 ar
7 5 10 ar
8 6 13 ar
9 6 19 ar
10 4 7 2
11 1 8 ar
12 9 20 1
13 9 10 1
14 10 16 ar
15 11 22 1
16 8 12 ar
17 12 16 ar
18 14 15 1
19 14 18 1
20 14 22 1
21 17 19 ar
22 19 21 1
@<TRIPOS>SUBSTRUCTURE
1	HS10	1	GROUP	1 A	HS1
