# created with PyMOL 3.1.3.1
@<TRIPOS>MOLECULE
3LKA_A
17 16 2                 
SMALL
USER_CHARGES
@<TRIPOS>ATOM
1	  C1	2.495	-5.717	7.446	C.2	1	M4S1	0.000	
2	  N1	2.513	-5.346	3.955	N.3	1	M4S1	0.000	
3	  O1	5.403	-6.371	9.555	O.3	1	M4S1	0.000	
4	  S1	1.881	-6.232	4.966	S.O2	1	M4S1	0.000	
5	  C2	3.357	-5.758	8.530	C.2	1	M4S1	0.000	
6	  O2	1.865	-7.633	4.454	O.2	1	M4S1	0.000	
7	  C3	4.611	-6.349	8.433	C.2	1	M4S1	0.000	
8	  O3	0.466	-5.840	5.233	O.2	1	M4S1	0.000	
9	  C4	5.036	-6.886	7.215	C.2	1	M4S1	0.000	
10	  C5	2.888	-6.270	6.228	C.2	1	M4S1	0.000	
11	  C6	6.624	-7.104	9.572	C.3	1	M4S1	0.000	
12	  C7	4.161	-6.854	6.118	C.2	1	M4S1	0.000	
13	   N	1.056	-1.920	5.088	N.2	2	HAE269	0.000	
14	   O	2.226	-2.115	5.805	O.2	2	HAE269	0.000	
15	  C1	-0.107	-1.237	3.070	C.3	2	HAE269	0.000	
16	  C2	1.171	-1.466	3.840	C.2	2	HAE269	0.000	
17	  O2	2.270	-1.249	3.352	O.2	2	HAE269	0.000	
@<TRIPOS>BOND
1 1 5 ar
2 1 10 ar
3 2 4 1
4 3 7 1
5 3 11 1
6 4 6 2
7 4 8 2
8 4 10 1
9 5 7 ar
10 7 9 ar
11 9 12 ar
12 10 12 ar
13 13 14 ar
14 15 16 1
15 13 16 ar
16 16 17 ar
@<TRIPOS>SUBSTRUCTURE
1	M4S1	1	GROUP	1 A	M4S
2	HAE269	13	GROUP	1 A	HAE
