# created with PyMOL 3.1.3.1
@<TRIPOS>MOLECULE
3RVI_A
45 46 3                 
SMALL
USER_CHARGES
@<TRIPOS>ATOM
1	  C1	73.071	44.300	-3.276	C.3	1	GOL400	0.000	
2	  O1	73.351	42.949	-3.563	O.3	1	GOL400	0.000	
3	  C2	74.026	44.819	-2.207	C.3	1	GOL400	0.000	
4	  O2	74.473	46.117	-2.527	O.3	1	GOL400	0.000	
5	  C3	73.420	44.744	-0.803	C.3	1	GOL400	0.000	
6	  O3	72.142	45.339	-0.752	O.3	1	GOL400	0.000	
7	  C1	87.338	67.322	7.646	C.3	2	GOL401	0.000	
8	  O1	88.744	67.176	7.648	O.3	2	GOL401	0.000	
9	  C2	86.675	66.066	7.087	C.3	2	GOL401	0.000	
10	  O2	87.406	64.923	7.476	O.3	2	GOL401	0.000	
11	  C3	85.244	65.976	7.611	C.3	2	GOL401	0.000	
12	  O3	84.435	65.308	6.670	O.3	2	GOL401	0.000	
13	  C1	72.691	49.821	14.251	C.2	3	RVI402	0.000	
14	  C2	71.562	50.622	14.115	C.2	3	RVI402	0.000	
15	  C3	70.756	50.497	12.988	C.2	3	RVI402	0.000	
16	  C4	71.072	49.568	11.993	C.2	3	RVI402	0.000	
17	  C5	72.214	48.758	12.133	C.2	3	RVI402	0.000	
18	  C6	73.016	48.890	13.266	C.2	3	RVI402	0.000	
19	  C7	70.225	49.482	10.885	C.2	3	RVI402	0.000	
20	  C8	70.172	50.540	9.973	C.2	3	RVI402	0.000	
21	  C9	69.324	50.476	8.872	C.2	3	RVI402	0.000	
22	 C10	69.410	48.363	10.695	C.2	3	RVI402	0.000	
23	 C11	68.566	48.296	9.583	C.2	3	RVI402	0.000	
24	 C12	68.523	49.356	8.678	C.2	3	RVI402	0.000	
25	 N13	67.711	49.300	7.612	N.2	3	RVI402	0.000	
26	 C14	66.915	48.243	7.380	C.2	3	RVI402	0.000	
27	 C15	66.908	47.145	8.252	C.2	3	RVI402	0.000	
28	 C16	67.749	47.185	9.367	C.2	3	RVI402	0.000	
29	 C17	72.622	47.717	11.075	C.3	3	RVI402	0.000	
30	 N18	66.142	48.268	6.298	N.pl3	3	RVI402	0.000	
31	 C19	66.033	45.897	8.083	C.3	3	RVI402	0.000	
32	 C20	64.558	46.249	8.363	C.3	3	RVI402	0.000	
33	 C21	64.344	46.699	9.814	C.2	3	RVI402	0.000	
34	 N22	63.812	47.916	9.959	N.pl3	3	RVI402	0.000	
35	 C23	63.454	48.476	11.285	C.3	3	RVI402	0.000	
36	 C24	64.406	49.537	11.863	C.3	3	RVI402	0.000	
37	 C25	64.485	50.787	10.983	C.3	3	RVI402	0.000	
38	 C26	65.326	51.873	11.690	C.3	3	RVI402	0.000	
39	 C27	66.729	51.363	12.066	C.3	3	RVI402	0.000	
40	 C28	66.671	50.033	12.833	C.3	3	RVI402	0.000	
41	 C29	65.821	48.990	12.084	C.3	3	RVI402	0.000	
42	 O30	64.628	45.949	10.752	O.2	3	RVI402	0.000	
43	 C31	63.657	45.026	8.092	C.3	3	RVI402	0.000	
44	 C32	62.176	45.369	8.344	C.3	3	RVI402	0.000	
45	 C33	61.273	44.131	8.394	C.3	3	RVI402	0.000	
@<TRIPOS>BOND
1 1 2 1
2 1 3 1
3 3 4 1
4 3 5 1
5 5 6 1
6 7 8 1
7 7 9 1
8 9 10 1
9 9 11 1
10 11 12 1
11 13 14 ar
12 14 15 ar
13 15 16 ar
14 16 17 ar
15 16 19 1
16 17 18 ar
17 17 29 1
18 13 18 ar
19 19 20 ar
20 19 22 ar
21 20 21 ar
22 22 23 ar
23 23 24 ar
24 21 24 ar
25 24 25 ar
26 25 26 ar
27 26 30 1
28 26 27 ar
29 27 28 ar
30 27 31 1
31 23 28 ar
32 31 32 1
33 32 33 1
34 32 43 1
35 33 34 1
36 33 42 2
37 34 35 1
38 35 36 1
39 36 37 1
40 36 41 1
41 37 38 1
42 38 39 1
43 39 40 1
44 40 41 1
45 43 44 1
46 44 45 1
@<TRIPOS>SUBSTRUCTURE
1	GOL400	1	GROUP	1 A	GOL
2	GOL401	7	GROUP	1 A	GOL
3	RVI402	13	GROUP	1 A	RVI
