# created with PyMOL 3.1.3.1
@<TRIPOS>MOLECULE
2OHT_A
28 30 2                 
SMALL
USER_CHARGES
@<TRIPOS>ATOM
1	   O	62.033	71.758	7.696	O.3	1	DMS404	0.000	
2	  C1	61.922	70.179	10.209	C.3	1	DMS404	0.000	
3	  C2	59.607	70.624	8.939	C.3	1	DMS404	0.000	
4	   S	61.335	70.321	8.505	S.O	1	DMS404	0.000	
5	  N1	66.378	48.432	6.293	N.pl3	2	IP6601	0.000	
6	  C2	66.329	47.853	7.559	C.2	2	IP6601	0.000	
7	  N3	65.738	46.670	7.722	N.2	2	IP6601	0.000	
8	  C4	65.672	46.077	8.903	C.2	2	IP6601	0.000	
9	  C5	66.218	46.662	10.032	C.2	2	IP6601	0.000	
10	  C6	66.845	47.895	9.907	C.2	2	IP6601	0.000	
11	  C7	66.908	48.516	8.656	C.2	2	IP6601	0.000	
12	  N8	67.539	49.772	8.489	N.pl3	2	IP6601	0.000	
13	  C9	68.254	50.426	9.602	C.3	2	IP6601	0.000	
14	 C10	69.638	49.812	9.755	C.2	2	IP6601	0.000	
15	 C11	70.106	49.535	11.041	C.2	2	IP6601	0.000	
16	 C12	71.359	48.969	11.206	C.2	2	IP6601	0.000	
17	 C13	72.150	48.672	10.095	C.2	2	IP6601	0.000	
18	 C14	71.700	48.958	8.795	C.2	2	IP6601	0.000	
19	 C15	70.423	49.518	8.630	C.2	2	IP6601	0.000	
20	 C16	72.566	48.617	7.639	C.2	2	IP6601	0.000	
21	 C17	73.974	48.691	7.760	C.2	2	IP6601	0.000	
22	 C18	74.783	48.355	6.697	C.2	2	IP6601	0.000	
23	 C19	74.218	47.924	5.476	C.2	2	IP6601	0.000	
24	 C20	74.765	47.501	4.171	C.2	2	IP6601	0.000	
25	 C21	73.723	47.182	3.365	C.2	2	IP6601	0.000	
26	 N22	72.541	47.372	4.037	N.pl3	2	IP6601	0.000	
27	 C23	72.801	47.818	5.339	C.2	2	IP6601	0.000	
28	 C24	71.986	48.166	6.440	C.2	2	IP6601	0.000	
@<TRIPOS>BOND
1 1 4 1
2 2 4 1
3 3 4 1
4 5 6 1
5 6 7 ar
6 6 11 ar
7 7 8 ar
8 8 9 ar
9 9 10 ar
10 10 11 ar
11 11 12 1
12 12 13 1
13 13 14 1
14 14 15 ar
15 14 19 ar
16 15 16 ar
17 16 17 ar
18 17 18 ar
19 18 19 ar
20 18 20 1
21 20 21 ar
22 20 28 ar
23 21 22 ar
24 22 23 ar
25 23 24 ar
26 23 27 ar
27 24 25 ar
28 25 26 ar
29 26 27 ar
30 27 28 ar
@<TRIPOS>SUBSTRUCTURE
1	DMS404	1	GROUP	1 A	DMS
2	IP6601	5	GROUP	1 A	IP6
