# created with PyMOL 3.1.3.1
@<TRIPOS>MOLECULE
2OHU_A
36 39 2                 
SMALL
USER_CHARGES
@<TRIPOS>ATOM
1	   O	62.375	69.148	8.804	O.3	1	DMS389	0.000	
2	  C1	59.715	70.195	9.430	C.3	1	DMS389	0.000	
3	  C2	61.849	71.954	9.384	C.3	1	DMS389	0.000	
4	   S	61.238	70.491	8.495	S.O	1	DMS389	0.000	
5	  N1	66.337	48.444	5.906	N.pl3	2	IP7390	0.000	
6	  C2	66.194	47.821	7.138	C.2	2	IP7390	0.000	
7	  N3	65.641	46.609	7.203	N.2	2	IP7390	0.000	
8	  C4	65.487	45.957	8.354	C.2	2	IP7390	0.000	
9	  C5	65.895	46.527	9.551	C.2	2	IP7390	0.000	
10	  C6	66.477	47.793	9.533	C.2	2	IP7390	0.000	
11	  C7	66.630	48.471	8.314	C.2	2	IP7390	0.000	
12	  N8	67.235	49.744	8.253	N.pl3	2	IP7390	0.000	
13	  C9	67.913	50.309	9.424	C.3	2	IP7390	0.000	
14	 C10	69.245	49.647	9.736	C.2	2	IP7390	0.000	
15	 C11	70.144	49.438	8.700	C.2	2	IP7390	0.000	
16	 C12	71.387	48.850	8.955	C.2	2	IP7390	0.000	
17	 C13	71.736	48.447	10.267	C.2	2	IP7390	0.000	
18	 C14	70.835	48.645	11.308	C.2	2	IP7390	0.000	
19	 C15	69.587	49.245	11.053	C.2	2	IP7390	0.000	
20	 O16	68.717	49.434	12.094	O.3	2	IP7390	0.000	
21	 C17	69.046	50.663	12.753	C.3	2	IP7390	0.000	
22	 C18	68.130	51.753	12.250	C.2	2	IP7390	0.000	
23	 C19	66.789	51.775	12.654	C.2	2	IP7390	0.000	
24	 C20	65.939	52.785	12.189	C.2	2	IP7390	0.000	
25	 C21	66.501	53.741	11.338	C.2	2	IP7390	0.000	
26	 C22	67.838	53.664	10.962	C.2	2	IP7390	0.000	
27	 N23	68.604	52.679	11.416	N.2	2	IP7390	0.000	
28	 C24	72.315	48.607	7.832	C.2	2	IP7390	0.000	
29	 C25	73.710	48.738	7.997	C.2	2	IP7390	0.000	
30	 C26	74.547	48.462	6.946	C.2	2	IP7390	0.000	
31	 C27	74.009	48.047	5.708	C.2	2	IP7390	0.000	
32	 C28	74.581	47.685	4.416	C.2	2	IP7390	0.000	
33	 C29	73.573	47.348	3.591	C.2	2	IP7390	0.000	
34	 N30	72.379	47.464	4.226	N.pl3	2	IP7390	0.000	
35	 C31	72.602	47.882	5.542	C.2	2	IP7390	0.000	
36	 C32	71.766	48.160	6.633	C.2	2	IP7390	0.000	
@<TRIPOS>BOND
1 1 4 1
2 2 4 1
3 3 4 1
4 5 6 1
5 6 7 ar
6 6 11 ar
7 7 8 ar
8 8 9 ar
9 9 10 ar
10 10 11 ar
11 11 12 1
12 12 13 1
13 13 14 1
14 14 15 ar
15 14 19 ar
16 15 16 ar
17 16 17 ar
18 16 28 1
19 17 18 ar
20 18 19 ar
21 19 20 1
22 20 21 1
23 21 22 1
24 22 23 ar
25 22 27 ar
26 23 24 ar
27 24 25 ar
28 25 26 ar
29 26 27 ar
30 28 29 ar
31 28 36 ar
32 29 30 ar
33 30 31 ar
34 31 32 ar
35 31 35 ar
36 32 33 ar
37 33 34 ar
38 34 35 ar
39 35 36 ar
@<TRIPOS>SUBSTRUCTURE
1	DMS389	1	GROUP	1 A	DMS
2	IP7390	5	GROUP	1 A	IP7
