# created with PyMOL 3.1.3.1
@<TRIPOS>MOLECULE
3HVG_A
11 11 1                 
SMALL
USER_CHARGES
@<TRIPOS>ATOM
1	  C1	69.530	47.571	8.678	C.2	1	EV0441	0.000	
2	  C2	69.365	48.675	7.934	C.2	1	EV0441	0.000	
3	  C3	68.492	46.533	8.612	C.2	1	EV0441	0.000	
4	  N4	68.168	48.813	7.075	N.2	1	EV0441	0.000	
5	  N5	67.393	46.723	7.790	N.2	1	EV0441	0.000	
6	  C6	67.261	47.877	7.031	C.2	1	EV0441	0.000	
7	  N7	66.159	48.033	6.224	N.pl3	1	EV0441	0.000	
8	  C8	70.386	49.789	7.948	C.3	1	EV0441	0.000	
9	  C9	71.718	49.317	7.361	C.3	1	EV0441	0.000	
10	 C10	72.724	50.471	7.380	C.3	1	EV0441	0.000	
11	 O11	68.591	45.520	9.265	O.2	1	EV0441	0.000	
@<TRIPOS>BOND
1 1 2 ar
2 2 8 1
3 1 3 ar
4 3 5 ar
5 2 4 ar
6 5 6 ar
7 4 6 ar
8 6 7 1
9 8 9 1
10 9 10 1
11 3 11 2
@<TRIPOS>SUBSTRUCTURE
1	EV0441	1	GROUP	1 A	EV0
