# created with PyMOL 3.1.3.1
@<TRIPOS>MOLECULE
3RSV_A
50 50 4                 
SMALL
USER_CHARGES
@<TRIPOS>ATOM
1	  C1	87.773	67.096	7.432	C.3	1	GOL397	0.000	
2	  O1	88.326	66.570	8.620	O.3	1	GOL397	0.000	
3	  C2	86.861	66.041	6.816	C.3	1	GOL397	0.000	
4	  O2	87.403	64.778	7.122	O.3	1	GOL397	0.000	
5	  C3	85.473	66.142	7.442	C.3	1	GOL397	0.000	
6	  O3	84.630	65.184	6.853	O.3	1	GOL397	0.000	
7	  C1	73.362	45.229	-0.554	C.3	2	GOL398	0.000	
8	  O1	72.017	45.488	-0.202	O.3	2	GOL398	0.000	
9	  C2	73.466	45.095	-2.066	C.3	2	GOL398	0.000	
10	  O2	74.736	45.522	-2.511	O.3	2	GOL398	0.000	
11	  C3	73.217	43.642	-2.459	C.3	2	GOL398	0.000	
12	  O3	73.453	43.445	-3.838	O.3	2	GOL398	0.000	
13	  C1	74.567	48.774	7.449	C.3	3	GOL399	0.000	
14	  O1	75.374	48.317	8.518	O.3	3	GOL399	0.000	
15	  C2	73.165	48.178	7.550	C.3	3	GOL399	0.000	
16	  O2	73.084	47.011	6.765	O.3	3	GOL399	0.000	
17	  C3	72.126	49.195	7.095	C.3	3	GOL399	0.000	
18	  O3	71.032	48.547	6.475	O.3	3	GOL399	0.000	
19	  C1	69.968	49.441	11.093	C.2	4	3RS400	0.000	
20	  C2	69.813	50.569	10.277	C.2	4	3RS400	0.000	
21	  C3	68.977	50.527	9.164	C.2	4	3RS400	0.000	
22	  C4	68.286	49.354	8.862	C.2	4	3RS400	0.000	
23	  C5	68.424	48.216	9.667	C.2	4	3RS400	0.000	
24	  C6	69.265	48.264	10.793	C.2	4	3RS400	0.000	
25	  N7	67.489	49.325	7.785	N.2	4	3RS400	0.000	
26	  C8	66.799	48.224	7.439	C.2	4	3RS400	0.000	
27	  C9	66.878	47.041	8.196	C.2	4	3RS400	0.000	
28	 C10	67.706	47.057	9.328	C.2	4	3RS400	0.000	
29	 N11	66.051	48.295	6.349	N.pl3	4	3RS400	0.000	
30	 C12	66.086	45.750	7.876	C.3	4	3RS400	0.000	
31	 C13	64.565	46.026	8.114	C.3	4	3RS400	0.000	
32	 C14	64.319	46.503	9.551	C.2	4	3RS400	0.000	
33	 N15	64.031	47.796	9.685	N.pl3	4	3RS400	0.000	
34	 O16	64.406	45.720	10.492	O.2	4	3RS400	0.000	
35	 C17	63.670	44.812	7.834	C.3	4	3RS400	0.000	
36	 C18	70.826	49.544	12.195	C.2	4	3RS400	0.000	
37	 C19	70.476	50.402	13.241	C.2	4	3RS400	0.000	
38	 C20	71.310	50.542	14.344	C.2	4	3RS400	0.000	
39	 C21	72.505	49.826	14.407	C.2	4	3RS400	0.000	
40	 C22	72.875	48.970	13.374	C.2	4	3RS400	0.000	
41	 C23	72.043	48.832	12.263	C.2	4	3RS400	0.000	
42	 C24	72.514	47.866	11.161	C.3	4	3RS400	0.000	
43	 C25	63.818	48.437	10.990	C.3	4	3RS400	0.000	
44	 C26	65.211	48.758	11.546	C.3	4	3RS400	0.000	
45	 C27	65.178	49.639	12.795	C.3	4	3RS400	0.000	
46	 O28	64.348	50.819	12.544	O.3	4	3RS400	0.000	
47	 C29	62.981	50.549	12.085	C.3	4	3RS400	0.000	
48	 C30	63.011	49.720	10.795	C.3	4	3RS400	0.000	
49	 C31	64.669	48.852	14.023	C.3	4	3RS400	0.000	
50	 C32	66.591	50.152	13.045	C.3	4	3RS400	0.000	
@<TRIPOS>BOND
1 1 2 1
2 1 3 1
3 3 4 1
4 3 5 1
5 5 6 1
6 7 8 1
7 7 9 1
8 9 10 1
9 9 11 1
10 11 12 1
11 13 14 1
12 13 15 1
13 15 16 1
14 15 17 1
15 17 18 1
16 19 36 1
17 19 20 ar
18 20 21 ar
19 21 22 ar
20 22 23 ar
21 23 24 ar
22 19 24 ar
23 22 25 ar
24 25 26 ar
25 26 29 1
26 26 27 ar
27 27 28 ar
28 23 28 ar
29 27 30 1
30 30 31 1
31 31 35 1
32 31 32 1
33 32 34 2
34 32 33 1
35 36 37 ar
36 36 41 ar
37 37 38 ar
38 38 39 ar
39 39 40 ar
40 40 41 ar
41 41 42 1
42 33 43 1
43 43 44 1
44 44 45 1
45 45 46 1
46 45 49 1
47 45 50 1
48 46 47 1
49 47 48 1
50 43 48 1
@<TRIPOS>SUBSTRUCTURE
1	GOL397	1	GROUP	1 A	GOL
2	GOL398	7	GROUP	1 A	GOL
3	GOL399	13	GROUP	1 A	GOL
4	3RS400	19	GROUP	1 A	3RS
