# created with PyMOL 3.1.3.1
@<TRIPOS>MOLECULE
3VV8_A
31 33 2                 
SMALL
USER_CHARGES
@<TRIPOS>ATOM
1	  C1	85.344	65.560	7.528	C.3	1	GOL501	0.000	
2	  O1	84.620	65.060	6.428	O.3	1	GOL501	0.000	
3	  C2	86.766	65.842	7.056	C.3	1	GOL501	0.000	
4	  O2	87.377	64.586	6.853	O.3	1	GOL501	0.000	
5	  C3	87.512	66.629	8.137	C.3	1	GOL501	0.000	
6	  O3	88.821	66.985	7.729	O.3	1	GOL501	0.000	
7	   O	68.103	45.911	9.942	O.2	2	B02502	0.000	
8	  C1	67.866	46.992	9.334	C.2	2	B02502	0.000	
9	  N1	67.347	49.386	7.976	N.2	2	B02502	0.000	
10	  C2	68.153	48.231	9.916	C.2	2	B02502	0.000	
11	  N2	67.300	46.976	8.037	N.2	2	B02502	0.000	
12	  C3	67.888	49.425	9.223	C.2	2	B02502	0.000	
13	  N3	66.513	48.221	6.120	N.pl3	2	B02502	0.000	
14	  C4	67.048	48.207	7.367	C.2	2	B02502	0.000	
15	  C5	67.011	45.679	7.411	C.3	2	B02502	0.000	
16	  C6	68.194	50.739	9.860	C.3	2	B02502	0.000	
17	  C7	69.653	51.181	9.685	C.3	2	B02502	0.000	
18	  C8	70.460	50.337	8.737	C.2	2	B02502	0.000	
19	  C9	70.018	50.079	7.437	C.2	2	B02502	0.000	
20	 C10	70.788	49.336	6.541	C.2	2	B02502	0.000	
21	 C11	72.038	48.857	6.930	C.2	2	B02502	0.000	
22	 C12	72.503	49.134	8.213	C.2	2	B02502	0.000	
23	 C13	71.721	49.873	9.103	C.2	2	B02502	0.000	
24	 C14	72.886	48.070	5.977	C.2	2	B02502	0.000	
25	 C15	72.359	47.513	4.800	C.2	2	B02502	0.000	
26	 C16	73.173	46.795	3.922	C.2	2	B02502	0.000	
27	 C17	74.521	46.639	4.212	C.2	2	B02502	0.000	
28	 C18	75.049	47.204	5.364	C.2	2	B02502	0.000	
29	 C19	74.245	47.923	6.245	C.2	2	B02502	0.000	
30	 C20	72.609	46.174	2.670	C.3	2	B02502	0.000	
31	 C21	69.210	50.530	10.995	C.3	2	B02502	0.000	
@<TRIPOS>BOND
1 1 2 1
2 1 3 1
3 3 4 1
4 3 5 1
5 5 6 1
6 7 8 2
7 8 10 ar
8 8 11 ar
9 9 12 ar
10 11 14 ar
11 11 15 1
12 10 12 ar
13 12 16 1
14 9 14 ar
15 13 14 1
16 16 17 1
17 16 31 1
18 17 18 1
19 18 19 ar
20 18 23 ar
21 19 20 ar
22 20 21 ar
23 21 24 1
24 21 22 ar
25 22 23 ar
26 24 25 ar
27 24 29 ar
28 25 26 ar
29 26 30 1
30 26 27 ar
31 27 28 ar
32 28 29 ar
33 17 31 1
@<TRIPOS>SUBSTRUCTURE
1	GOL501	1	GROUP	1 A	GOL
2	B02502	7	GROUP	1 A	B02
