# created with PyMOL 3.1.3.1
@<TRIPOS>MOLECULE
2OHM_A
19 19 2                 
SMALL
USER_CHARGES
@<TRIPOS>ATOM
1	   O	62.033	71.849	8.298	O.3	1	DMS388	0.000	
2	  C1	62.128	69.193	9.576	C.3	1	DMS388	0.000	
3	  C2	59.664	70.575	9.651	C.3	1	DMS388	0.000	
4	   S	61.119	70.325	8.572	S.O	1	DMS388	0.000	
5	  N1	66.310	48.704	6.221	N.pl3	2	8AP389	0.000	
6	  C2	66.981	47.867	7.113	C.2	2	8AP389	0.000	
7	  N3	66.794	46.553	7.032	N.2	2	8AP389	0.000	
8	  C4	67.396	45.686	7.837	C.2	2	8AP389	0.000	
9	  C5	68.271	46.128	8.817	C.2	2	8AP389	0.000	
10	  C6	68.502	47.491	8.945	C.2	2	8AP389	0.000	
11	  C7	67.840	48.381	8.095	C.2	2	8AP389	0.000	
12	  N8	68.077	49.757	8.206	N.pl3	2	8AP389	0.000	
13	  C9	69.281	50.225	8.911	C.3	2	8AP389	0.000	
14	 C10	70.551	49.827	8.179	C.2	2	8AP389	0.000	
15	 C11	70.512	49.168	6.947	C.2	2	8AP389	0.000	
16	 C12	71.683	48.816	6.291	C.2	2	8AP389	0.000	
17	 C13	72.906	49.126	6.867	C.2	2	8AP389	0.000	
18	 C14	72.950	49.782	8.091	C.2	2	8AP389	0.000	
19	 C15	71.778	50.130	8.750	C.2	2	8AP389	0.000	
@<TRIPOS>BOND
1 1 4 1
2 2 4 1
3 3 4 1
4 5 6 1
5 6 7 ar
6 6 11 ar
7 7 8 ar
8 8 9 ar
9 9 10 ar
10 10 11 ar
11 11 12 1
12 12 13 1
13 13 14 1
14 14 15 ar
15 14 19 ar
16 15 16 ar
17 16 17 ar
18 17 18 ar
19 18 19 ar
@<TRIPOS>SUBSTRUCTURE
1	DMS388	1	GROUP	1 A	DMS
2	8AP389	5	GROUP	1 A	8AP
