# created with PyMOL 3.1.3.1
@<TRIPOS>MOLECULE
3RTH_A
23 25 1                 
SMALL
USER_CHARGES
@<TRIPOS>ATOM
1	  C1	69.842	49.644	10.842	C.2	1	RTH397	0.000	
2	  C2	69.479	50.810	10.178	C.2	1	RTH397	0.000	
3	  C3	68.686	50.727	9.034	C.2	1	RTH397	0.000	
4	  C4	69.399	48.414	10.352	C.2	1	RTH397	0.000	
5	  C5	68.631	48.334	9.206	C.2	1	RTH397	0.000	
6	  C6	68.262	49.501	8.541	C.2	1	RTH397	0.000	
7	  N7	67.494	49.444	7.434	N.2	1	RTH397	0.000	
8	  C8	67.049	48.261	6.949	C.2	1	RTH397	0.000	
9	  C9	67.389	47.059	7.580	C.2	1	RTH397	0.000	
10	 C10	68.192	47.100	8.722	C.2	1	RTH397	0.000	
11	 C11	70.650	49.680	11.989	C.2	1	RTH397	0.000	
12	 C12	71.941	49.141	11.890	C.2	1	RTH397	0.000	
13	 C13	72.800	49.136	12.997	C.2	1	RTH397	0.000	
14	 C14	72.347	49.666	14.209	C.2	1	RTH397	0.000	
15	 C15	71.059	50.201	14.309	C.2	1	RTH397	0.000	
16	 C16	70.202	50.217	13.205	C.2	1	RTH397	0.000	
17	 N17	66.293	48.241	5.852	N.pl3	1	RTH397	0.000	
18	 C18	72.291	48.634	10.587	C.3	1	RTH397	0.000	
19	 C19	72.553	48.198	9.427	C.3	1	RTH397	0.000	
20	 C20	72.895	47.679	8.076	C.3	1	RTH397	0.000	
21	 C21	72.271	48.608	7.015	C.3	1	RTH397	0.000	
22	 C22	72.306	46.282	7.907	C.3	1	RTH397	0.000	
23	 C23	74.428	47.694	7.980	C.3	1	RTH397	0.000	
@<TRIPOS>BOND
1 1 2 ar
2 2 3 ar
3 1 4 ar
4 4 5 ar
5 5 6 ar
6 5 10 ar
7 3 6 ar
8 6 7 ar
9 7 8 ar
10 8 9 ar
11 8 17 1
12 9 10 ar
13 1 11 1
14 11 12 ar
15 12 13 ar
16 13 14 ar
17 14 15 ar
18 15 16 ar
19 11 16 ar
20 12 18 1
21 18 19 1
22 19 20 1
23 20 21 1
24 20 22 1
25 20 23 1
@<TRIPOS>SUBSTRUCTURE
1	RTH397	1	GROUP	1 A	RTH
