# created with PyMOL 3.1.3.1
@<TRIPOS>MOLECULE
3RTN_A
47 47 4                 
SMALL
USER_CHARGES
@<TRIPOS>ATOM
1	  C1	73.655	44.067	-4.116	C.3	1	GOL398	0.000	
2	  O1	73.482	42.671	-4.275	O.3	1	GOL398	0.000	
3	  C2	74.212	44.406	-2.732	C.3	1	GOL398	0.000	
4	  O2	74.876	45.651	-2.769	O.3	1	GOL398	0.000	
5	  C3	73.071	44.437	-1.717	C.3	1	GOL398	0.000	
6	  O3	73.370	45.294	-0.639	O.3	1	GOL398	0.000	
7	  C1	87.125	66.930	7.226	C.3	2	GOL399	0.000	
8	  O1	88.534	66.832	7.263	O.3	2	GOL399	0.000	
9	  C2	86.496	65.622	6.735	C.3	2	GOL399	0.000	
10	  O2	87.266	64.515	7.156	O.3	2	GOL399	0.000	
11	  C3	85.067	65.496	7.266	C.3	2	GOL399	0.000	
12	  O3	84.172	65.438	6.181	O.3	2	GOL399	0.000	
13	  C1	71.819	49.659	7.160	C.3	3	GOL400	0.000	
14	  O1	71.229	49.001	6.062	O.3	3	GOL400	0.000	
15	  C2	72.625	48.640	7.941	C.3	3	GOL400	0.000	
16	  O2	72.942	47.595	7.049	O.3	3	GOL400	0.000	
17	  C3	73.882	49.331	8.457	C.3	3	GOL400	0.000	
18	  O3	74.986	48.461	8.596	O.3	3	GOL400	0.000	
19	  C1	69.909	49.566	11.230	C.2	4	RTN401	0.000	
20	  C2	69.777	50.669	10.383	C.2	4	RTN401	0.000	
21	  C3	68.967	50.622	9.255	C.2	4	RTN401	0.000	
22	  C4	68.266	49.458	8.970	C.2	4	RTN401	0.000	
23	  C5	68.357	48.338	9.816	C.2	4	RTN401	0.000	
24	  C6	69.184	48.399	10.957	C.2	4	RTN401	0.000	
25	  N7	67.495	49.431	7.878	N.2	4	RTN401	0.000	
26	  C8	66.780	48.355	7.536	C.2	4	RTN401	0.000	
27	  C9	66.827	47.183	8.322	C.2	4	RTN401	0.000	
28	 C10	67.632	47.181	9.481	C.2	4	RTN401	0.000	
29	 C11	70.722	49.694	12.356	C.2	4	RTN401	0.000	
30	 C12	70.315	50.640	13.297	C.2	4	RTN401	0.000	
31	 C13	71.053	50.832	14.459	C.2	4	RTN401	0.000	
32	 C14	72.207	50.090	14.682	C.2	4	RTN401	0.000	
33	 C15	72.627	49.145	13.763	C.2	4	RTN401	0.000	
34	 C16	71.894	48.950	12.595	C.2	4	RTN401	0.000	
35	 C17	72.443	47.885	11.628	C.3	4	RTN401	0.000	
36	 C18	66.027	45.909	7.998	C.3	4	RTN401	0.000	
37	 C19	64.566	46.046	8.445	C.3	4	RTN401	0.000	
38	 C20	64.406	46.817	9.758	C.2	4	RTN401	0.000	
39	 N21	64.356	48.140	9.623	N.pl3	4	RTN401	0.000	
40	 C22	64.308	49.200	10.672	C.3	4	RTN401	0.000	
41	 C23	62.931	49.669	11.070	C.3	4	RTN401	0.000	
42	 C24	63.143	51.090	11.594	C.3	4	RTN401	0.000	
43	 C25	64.064	51.121	12.840	C.3	4	RTN401	0.000	
44	 C26	65.317	50.260	12.707	C.3	4	RTN401	0.000	
45	 C27	65.062	48.912	11.970	C.3	4	RTN401	0.000	
46	 N28	66.045	48.442	6.424	N.pl3	4	RTN401	0.000	
47	 O29	64.306	46.217	10.817	O.2	4	RTN401	0.000	
@<TRIPOS>BOND
1 1 2 1
2 1 3 1
3 3 4 1
4 3 5 1
5 5 6 1
6 7 8 1
7 7 9 1
8 9 10 1
9 9 11 1
10 11 12 1
11 13 14 1
12 13 15 1
13 15 16 1
14 15 17 1
15 17 18 1
16 19 29 1
17 19 20 ar
18 20 21 ar
19 21 22 ar
20 22 23 ar
21 22 25 ar
22 23 24 ar
23 23 28 ar
24 19 24 ar
25 25 26 ar
26 26 27 ar
27 26 46 1
28 27 28 ar
29 29 30 ar
30 29 34 ar
31 30 31 ar
32 31 32 ar
33 32 33 ar
34 33 34 ar
35 34 35 1
36 27 36 1
37 36 37 1
38 37 38 1
39 38 39 1
40 38 47 2
41 39 40 1
42 40 41 1
43 40 45 1
44 41 42 1
45 42 43 1
46 43 44 1
47 44 45 1
@<TRIPOS>SUBSTRUCTURE
1	GOL398	1	GROUP	1 A	GOL
2	GOL399	7	GROUP	1 A	GOL
3	GOL400	13	GROUP	1 A	GOL
4	RTN401	19	GROUP	1 A	RTN
