# created with PyMOL 3.1.3.1
@<TRIPOS>MOLECULE
2OHL_A
23 23 2                 
SMALL
USER_CHARGES
@<TRIPOS>ATOM
1	   O	62.026	71.875	9.158	O.3	1	DMS389	0.000	
2	  C1	62.477	69.030	9.195	C.3	1	DMS389	0.000	
3	  C2	59.831	69.932	9.664	C.3	1	DMS389	0.000	
4	   S	61.307	70.302	8.667	S.O	1	DMS389	0.000	
5	  N1	66.108	48.198	5.968	N.pl3	2	2AQ390	0.000	
6	  C2	66.827	48.182	7.020	C.2	2	2AQ390	0.000	
7	  C3	67.175	46.980	7.622	C.2	2	2AQ390	0.000	
8	  C4	67.953	46.991	8.753	C.2	2	2AQ390	0.000	
9	  C5	68.356	48.207	9.284	C.2	2	2AQ390	0.000	
10	  C6	69.138	48.297	10.424	C.2	2	2AQ390	0.000	
11	  C7	69.508	49.529	10.917	C.2	2	2AQ390	0.000	
12	  C8	69.104	50.686	10.278	C.2	2	2AQ390	0.000	
13	  C9	68.331	50.616	9.136	C.2	2	2AQ390	0.000	
14	 C10	67.948	49.390	8.625	C.2	2	2AQ390	0.000	
15	 N11	67.198	49.372	7.516	N.2	2	2AQ390	0.000	
16	HN11	65.908	49.035	5.537	 H	2	2AQ390	0.000	
17	HN12	65.752	47.355	5.676	 H	2	2AQ390	0.000	
18	  H3	66.859	46.043	7.185	 H	2	2AQ390	0.000	
19	  H4	68.244	46.066	9.229	 H	2	2AQ390	0.000	
20	  H6	69.445	47.396	10.934	 H	2	2AQ390	0.000	
21	  H7	70.112	49.592	11.810	 H	2	2AQ390	0.000	
22	  H8	69.405	51.647	10.665	 H	2	2AQ390	0.000	
23	  H9	68.026	51.523	8.637	 H	2	2AQ390	0.000	
@<TRIPOS>BOND
1 1 4 1
2 2 4 1
3 3 4 1
4 5 6 1
5 5 16 1
6 5 17 1
7 6 7 ar
8 6 15 ar
9 7 8 ar
10 7 18 1
11 8 9 ar
12 8 19 1
13 9 10 ar
14 9 14 ar
15 10 11 ar
16 10 20 1
17 11 12 ar
18 11 21 1
19 12 13 ar
20 12 22 1
21 13 14 ar
22 13 23 1
23 14 15 ar
@<TRIPOS>SUBSTRUCTURE
1	DMS389	1	GROUP	1 A	DMS
2	2AQ390	5	GROUP	1 A	2AQ
