# created with PyMOL 3.1.3.1
@<TRIPOS>MOLECULE
3HVG_B
22 22 2                 
SMALL
USER_CHARGES
@<TRIPOS>ATOM
1	  C1	69.783	47.499	9.176	C.2	1	EV0441	0.000	
2	  C2	68.697	46.701	9.088	C.2	1	EV0441	0.000	
3	  C3	69.853	48.692	8.317	C.2	1	EV0441	0.000	
4	  N4	67.623	47.054	8.128	N.2	1	EV0441	0.000	
5	  N5	68.807	48.953	7.444	N.2	1	EV0441	0.000	
6	  C6	67.703	48.114	7.369	C.2	1	EV0441	0.000	
7	  N7	66.678	48.395	6.491	N.pl3	1	EV0441	0.000	
8	  C8	68.557	45.448	9.948	C.3	1	EV0441	0.000	
9	  C9	67.106	44.975	10.135	C.3	1	EV0441	0.000	
10	 C10	66.401	45.787	11.227	C.3	1	EV0441	0.000	
11	 O11	70.807	49.438	8.366	O.2	1	EV0441	0.000	
12	  C1	49.935	30.308	11.482	C.2	2	EV0442	0.000	
13	  C2	50.990	31.140	11.563	C.2	2	EV0442	0.000	
14	  C3	48.729	30.775	10.776	C.2	2	EV0442	0.000	
15	  N4	50.877	32.484	10.937	N.2	2	EV0442	0.000	
16	  N5	48.696	32.039	10.222	N.2	2	EV0442	0.000	
17	  C6	49.790	32.872	10.319	C.2	2	EV0442	0.000	
18	  N7	49.713	34.120	9.751	N.pl3	2	EV0442	0.000	
19	  C8	52.298	30.776	12.265	C.3	2	EV0442	0.000	
20	  C9	52.603	29.274	12.411	C.3	2	EV0442	0.000	
21	 C10	54.106	29.073	12.650	C.3	2	EV0442	0.000	
22	 O11	47.759	30.065	10.671	O.2	2	EV0442	0.000	
@<TRIPOS>BOND
1 1 2 ar
2 2 8 1
3 1 3 ar
4 3 5 ar
5 2 4 ar
6 5 6 ar
7 4 6 ar
8 6 7 1
9 8 9 1
10 9 10 1
11 3 11 2
12 12 13 ar
13 13 19 1
14 12 14 ar
15 14 16 ar
16 13 15 ar
17 16 17 ar
18 15 17 ar
19 17 18 1
20 19 20 1
21 20 21 1
22 14 22 2
@<TRIPOS>SUBSTRUCTURE
1	EV0441	1	GROUP	1 B	EV0
2	EV0442	12	GROUP	1 B	EV0
