# created with PyMOL 3.1.3.1
@<TRIPOS>MOLECULE
3IVX_AB
137 134 15              
SMALL
USER_CHARGES
@<TRIPOS>ATOM
1	   N	33.984	35.099	39.245	N.2	1	FG6302	0.000	
2	  CA	35.455	34.887	39.004	C.3	1	FG6302	0.000	
3	 CAA	28.835	34.537	35.681	C.3	1	FG6302	0.000	
4	 CAG	31.206	33.527	48.843	C.2	1	FG6302	0.000	
5	 CAH	30.904	32.491	47.960	C.2	1	FG6302	0.000	
6	 CAI	32.476	34.650	35.937	C.2	1	FG6302	0.000	
7	 CAJ	31.817	34.665	48.342	C.2	1	FG6302	0.000	
8	 CAK	31.221	32.643	46.607	C.2	1	FG6302	0.000	
9	 CAL	33.489	34.733	36.886	C.2	1	FG6302	0.000	
10	 CAM	30.899	35.111	37.696	C.2	1	FG6302	0.000	
11	 CAN	32.675	35.721	46.365	C.2	1	FG6302	0.000	
12	 CAO	31.948	35.402	39.926	C.2	1	FG6302	0.000	
13	 CAU	33.734	35.521	41.580	C.2	1	FG6302	0.000	
14	 CAV	31.160	34.835	36.331	C.2	1	FG6302	0.000	
15	 CAW	32.754	35.402	45.088	C.2	1	FG6302	0.000	
16	 CAX	33.236	35.350	40.321	C.2	1	FG6302	0.000	
17	 CAY	32.103	34.746	47.046	C.2	1	FG6302	0.000	
18	 CAZ	31.909	35.182	38.595	C.2	1	FG6302	0.000	
19	   C	36.488	35.812	39.633	C.2	1	FG6302	0.000	
20	   O	36.140	36.926	40.040	O.co2	1	FG6302	0.000	
21	 NAQ	32.929	36.131	42.456	N.pl3	1	FG6302	0.000	
22	 OAC	34.865	35.120	41.902	O.2	1	FG6302	0.000	
23	 OAD	33.034	37.823	44.385	O.2	1	FG6302	0.000	
24	 OAE	34.947	36.418	44.196	O.2	1	FG6302	0.000	
25	 OAR	30.218	34.730	35.339	O.3	1	FG6302	0.000	
26	 OAS	32.250	34.223	44.845	O.2	1	FG6302	0.000	
27	 CBA	31.808	33.765	46.178	C.2	1	FG6302	0.000	
28	 CBB	33.183	34.985	38.186	C.2	1	FG6302	0.000	
29	 SBD	33.432	36.435	44.035	S.O2	1	FG6302	0.000	
30	 OXT	37.650	35.354	39.655	O.co2	1	FG6302	0.000	
31	   N	44.937	23.220	59.879	N.2	2	FG6303	0.000	
32	  CA	45.402	24.431	60.683	C.3	2	FG6303	0.000	
33	 CAA	46.933	19.222	55.622	C.3	2	FG6303	0.000	
34	 CAG	40.089	28.974	58.409	C.2	2	FG6303	0.000	
35	 CAH	38.877	28.320	58.213	C.2	2	FG6303	0.000	
36	 CAI	47.738	22.097	57.758	C.2	2	FG6303	0.000	
37	 CAJ	40.998	28.399	59.281	C.2	2	FG6303	0.000	
38	 CAK	38.606	27.134	58.898	C.2	2	FG6303	0.000	
39	 CAL	47.046	22.877	58.678	C.2	2	FG6303	0.000	
40	 CAM	45.743	20.792	57.550	C.2	2	FG6303	0.000	
41	 CAN	41.425	26.552	60.764	C.2	2	FG6303	0.000	
42	 CAO	43.889	21.536	58.963	C.2	2	FG6303	0.000	
43	 CAU	42.637	22.837	60.531	C.2	2	FG6303	0.000	
44	 CAV	47.074	21.026	57.176	C.2	2	FG6303	0.000	
45	 CAW	40.715	25.501	61.143	C.2	2	FG6303	0.000	
46	 CAX	43.775	22.542	59.848	C.2	2	FG6303	0.000	
47	 CAY	40.698	27.254	59.902	C.2	2	FG6303	0.000	
48	 CAZ	45.125	21.572	58.451	C.2	2	FG6303	0.000	
49	   C	45.830	24.051	62.143	C.2	2	FG6303	0.000	
50	   O	46.091	25.003	62.918	O.co2	2	FG6303	0.000	
51	 NAQ	42.732	23.847	61.417	N.pl3	2	FG6303	0.000	
52	 OAC	41.578	22.237	60.312	O.2	2	FG6303	0.000	
53	 OAD	41.758	25.008	63.555	O.2	2	FG6303	0.000	
54	 OAE	40.343	23.179	62.469	O.2	2	FG6303	0.000	
55	 OAR	47.742	20.255	56.251	O.3	2	FG6303	0.000	
56	 OAS	39.507	25.466	60.503	O.2	2	FG6303	0.000	
57	 CBA	39.517	26.630	59.720	C.2	2	FG6303	0.000	
58	 CBB	45.776	22.607	59.020	C.2	2	FG6303	0.000	
59	 SBD	41.355	24.332	62.249	S.O2	2	FG6303	0.000	
60	 OXT	45.884	22.838	62.473	O.co2	2	FG6303	0.000	
61	   O	38.252	26.458	65.131	O.3	3	EOH304	0.000	
62	  C1	37.912	25.733	63.963	C.3	3	EOH304	0.000	
63	  C2	36.710	24.828	64.228	C.3	3	EOH304	0.000	
64	   O	38.085	29.061	21.373	O.3	4	EOH305	0.000	
65	  C1	37.232	29.421	20.290	C.3	4	EOH305	0.000	
66	  C2	35.746	29.300	20.611	C.3	4	EOH305	0.000	
67	   O	16.106	18.677	53.819	O.3	5	EOH306	0.000	
68	  C1	14.928	17.901	53.848	C.3	5	EOH306	0.000	
69	  C2	13.760	18.657	53.218	C.3	5	EOH306	0.000	
70	   O	39.071	33.912	60.048	O.3	6	EOH504	0.000	
71	  C1	38.408	35.011	60.641	C.3	6	EOH504	0.000	
72	  C2	38.492	34.987	62.153	C.3	6	EOH504	0.000	
73	  C1	16.845	36.178	58.567	C.3	7	EDO507	0.000	
74	  O1	16.036	36.620	57.481	O.3	7	EDO507	0.000	
75	  C2	16.173	34.986	59.221	C.3	7	EDO507	0.000	
76	  O2	15.059	35.476	59.970	O.3	7	EDO507	0.000	
77	  C1	19.557	28.331	54.848	C.3	8	EDO508	0.000	
78	  O1	18.993	28.383	53.526	O.3	8	EDO508	0.000	
79	  C2	18.428	27.960	55.813	C.3	8	EDO508	0.000	
80	  O2	18.090	26.569	55.648	O.3	8	EDO508	0.000	
81	  C1	32.255	31.759	62.847	C.3	9	EDO532	0.000	
82	  O1	31.664	33.002	63.284	O.3	9	EDO532	0.000	
83	  C2	33.066	31.248	64.022	C.3	9	EDO532	0.000	
84	  O2	34.048	30.337	63.558	O.3	9	EDO532	0.000	
85	  C1	34.636	37.871	72.075	C.3	10	EDO533	0.000	
86	  O1	34.655	36.426	72.077	O.3	10	EDO533	0.000	
87	  C2	36.013	38.374	72.494	C.3	10	EDO533	0.000	
88	  O2	36.979	37.657	71.718	O.3	10	EDO533	0.000	
89	  C1	53.424	35.246	29.162	C.3	11	GOL534	0.000	
90	  O1	52.229	35.430	29.873	O.3	11	GOL534	0.000	
91	  C2	54.039	36.593	28.847	C.3	11	GOL534	0.000	
92	  O2	53.741	36.883	27.503	O.3	11	GOL534	0.000	
93	  C3	55.547	36.507	29.048	C.3	11	GOL534	0.000	
94	  O3	56.086	35.431	28.309	O.3	11	GOL534	0.000	
95	   N	19.285	13.393	79.406	N.2	12	FG6302	0.000	
96	  CA	20.364	12.457	79.889	C.3	12	FG6302	0.000	
97	 CAA	15.603	17.912	81.682	C.3	12	FG6302	0.000	
98	 CAG	20.879	15.810	70.162	C.2	12	FG6302	0.000	
99	 CAH	22.021	15.924	70.947	C.2	12	FG6302	0.000	
100	 CAI	17.859	15.111	82.329	C.2	12	FG6302	0.000	
101	 CAJ	19.850	14.991	70.614	C.2	12	FG6302	0.000	
102	 CAK	22.101	15.205	72.148	C.2	12	FG6302	0.000	
103	 CAL	18.676	14.243	81.619	C.2	12	FG6302	0.000	
104	 CAM	16.924	15.777	80.215	C.2	12	FG6302	0.000	
105	 CAN	19.117	13.523	72.403	C.2	12	FG6302	0.000	
106	 CAO	17.876	14.620	78.248	C.2	12	FG6302	0.000	
107	 CAU	19.347	13.101	77.034	C.2	12	FG6302	0.000	
108	 CAV	16.961	15.909	81.620	C.2	12	FG6302	0.000	
109	 CAW	19.674	13.128	73.537	C.2	12	FG6302	0.000	
110	 CAX	18.845	13.686	78.161	C.2	12	FG6302	0.000	
111	 CAY	19.964	14.343	71.781	C.2	12	FG6302	0.000	
112	 CAZ	17.726	14.918	79.561	C.2	12	FG6302	0.000	
113	   C	20.218	10.991	79.464	C.2	12	FG6302	0.000	
114	   O	21.248	10.285	79.527	O.co2	12	FG6302	0.000	
115	 NAQ	18.471	12.808	76.051	N.pl3	12	FG6302	0.000	
116	 OAC	20.569	12.896	76.929	O.2	12	FG6302	0.000	
117	 OAD	17.740	11.404	74.029	O.2	12	FG6302	0.000	
118	 OAE	19.995	10.963	74.877	O.2	12	FG6302	0.000	
119	 OAR	16.157	16.764	82.349	O.3	12	FG6302	0.000	
120	 OAS	20.874	13.637	73.667	O.2	12	FG6302	0.000	
121	 CBA	21.070	14.442	72.536	C.2	12	FG6302	0.000	
122	 CBB	18.603	14.161	80.267	C.2	12	FG6302	0.000	
123	 SBD	18.964	12.063	74.634	S.O2	12	FG6302	0.000	
124	 OXT	19.105	10.597	79.111	O.co2	12	FG6302	0.000	
125	  C1	25.913	15.081	56.664	C.3	13	EDO503	0.000	
126	  O1	24.729	14.980	55.889	O.3	13	EDO503	0.000	
127	  C2	27.082	14.675	55.793	C.3	13	EDO503	0.000	
128	  O2	28.233	14.891	56.571	O.3	13	EDO503	0.000	
129	   O	30.226	34.100	79.952	O.3	14	EOH505	0.000	
130	  C1	30.403	34.856	81.131	C.3	14	EOH505	0.000	
131	  C2	30.492	36.358	80.873	C.3	14	EOH505	0.000	
132	  C1	18.053	28.043	62.747	C.3	15	GOL506	0.000	
133	  O1	17.341	26.872	63.064	O.3	15	GOL506	0.000	
134	  C2	18.242	28.112	61.240	C.3	15	GOL506	0.000	
135	  O2	17.280	27.265	60.637	O.3	15	GOL506	0.000	
136	  C3	17.919	29.524	60.778	C.3	15	GOL506	0.000	
137	  O3	18.972	30.467	60.832	O.3	15	GOL506	0.000	
@<TRIPOS>BOND
1 1 2 1
2 1 16 ar
3 1 28 ar
4 3 25 1
5 4 5 ar
6 4 7 ar
7 5 8 ar
8 6 9 ar
9 6 14 ar
10 7 17 ar
11 8 27 ar
12 9 28 ar
13 10 14 ar
14 10 18 ar
15 11 15 ar
16 11 17 ar
17 12 16 ar
18 12 18 ar
19 13 16 1
20 15 29 1
21 17 27 ar
22 18 28 ar
23 2 19 1
24 19 20 ar
25 19 30 ar
26 13 21 1
27 21 29 1
28 13 22 2
29 23 29 2
30 24 29 2
31 14 25 1
32 15 26 ar
33 26 27 ar
34 31 32 1
35 31 46 ar
36 31 58 ar
37 33 55 1
38 34 35 ar
39 34 37 ar
40 35 38 ar
41 36 39 ar
42 36 44 ar
43 37 47 ar
44 38 57 ar
45 39 58 ar
46 40 44 ar
47 40 48 ar
48 41 45 ar
49 41 47 ar
50 42 46 ar
51 42 48 ar
52 43 46 1
53 45 59 1
54 47 57 ar
55 48 58 ar
56 32 49 1
57 49 50 ar
58 49 60 ar
59 43 51 1
60 51 59 1
61 43 52 2
62 53 59 2
63 54 59 2
64 44 55 1
65 45 56 ar
66 56 57 ar
67 61 62 1
68 62 63 1
69 64 65 1
70 65 66 1
71 67 68 1
72 68 69 1
73 70 71 1
74 71 72 1
75 73 74 1
76 73 75 1
77 75 76 1
78 77 78 1
79 77 79 1
80 79 80 1
81 81 82 1
82 81 83 1
83 83 84 1
84 85 86 1
85 85 87 1
86 87 88 1
87 89 90 1
88 89 91 1
89 91 92 1
90 91 93 1
91 93 94 1
92 95 96 1
93 95 110 ar
94 95 122 ar
95 97 119 1
96 98 99 ar
97 98 101 ar
98 99 102 ar
99 100 103 ar
100 100 108 ar
101 101 111 ar
102 102 121 ar
103 103 122 ar
104 104 108 ar
105 104 112 ar
106 105 109 ar
107 105 111 ar
108 106 110 ar
109 106 112 ar
110 107 110 1
111 109 123 1
112 111 121 ar
113 112 122 ar
114 96 113 1
115 113 114 ar
116 113 124 ar
117 107 115 1
118 115 123 1
119 107 116 2
120 117 123 2
121 118 123 2
122 108 119 1
123 109 120 ar
124 120 121 ar
125 125 126 1
126 125 127 1
127 127 128 1
128 129 130 1
129 130 131 1
130 132 133 1
131 132 134 1
132 134 135 1
133 134 136 1
134 136 137 1
@<TRIPOS>SUBSTRUCTURE
1	FG6302	1	GROUP	1 A	FG6
2	FG6303	31	GROUP	1 A	FG6
3	EOH304	61	GROUP	1 A	EOH
4	EOH305	64	GROUP	1 A	EOH
5	EOH306	67	GROUP	1 A	EOH
6	EOH504	70	GROUP	1 A	EOH
7	EDO507	73	GROUP	1 A	EDO
8	EDO508	77	GROUP	1 A	EDO
9	EDO532	81	GROUP	1 A	EDO
10	EDO533	85	GROUP	1 A	EDO
11	GOL534	89	GROUP	1 A	GOL
12	FG6302	95	GROUP	1 B	FG6
13	EDO503	125	GROUP	1 B	EDO
14	EOH505	129	GROUP	1 B	EOH
15	GOL506	132	GROUP	1 B	GOL
