# created with PyMOL 3.1.3.1
@<TRIPOS>MOLECULE
3ISJ_A
48 42 8                 
SMALL
USER_CHARGES
@<TRIPOS>ATOM
1	   O	40.041	34.587	70.728	O.3	1	EOH301	0.000	
2	  C1	39.531	35.866	70.422	C.3	1	EOH301	0.000	
3	  C2	40.479	36.698	69.557	C.3	1	EOH301	0.000	
4	   O	38.392	26.312	65.662	O.3	2	EOH302	0.000	
5	  C1	37.982	26.174	64.311	C.3	2	EOH302	0.000	
6	  C2	36.741	25.309	64.158	C.3	2	EOH302	0.000	
7	   O	38.090	29.102	21.750	O.3	3	EOH303	0.000	
8	  C1	37.010	28.886	20.842	C.3	3	EOH303	0.000	
9	  C2	36.209	30.116	20.451	C.3	3	EOH303	0.000	
10	   O	15.749	20.101	52.864	O.3	4	EOH304	0.000	
11	  C1	15.930	18.823	53.453	C.3	4	EOH304	0.000	
12	  C2	14.763	18.399	54.333	C.3	4	EOH304	0.000	
13	  C1	32.487	33.459	65.136	C.3	5	GOL305	0.000	
14	  O1	33.370	34.533	65.072	O.3	5	GOL305	0.000	
15	  C2	32.102	32.749	63.846	C.3	5	GOL305	0.000	
16	  O2	31.587	33.585	62.857	O.3	5	GOL305	0.000	
17	  C3	33.172	31.856	63.219	C.3	5	GOL305	0.000	
18	  O3	33.549	30.881	64.137	O.3	5	GOL305	0.000	
19	  C1	24.890	18.437	45.846	C.3	6	GOL306	0.000	
20	  O1	23.576	18.112	45.431	O.3	6	GOL306	0.000	
21	  C2	25.777	17.244	46.157	C.3	6	GOL306	0.000	
22	  O2	25.022	16.241	46.818	O.3	6	GOL306	0.000	
23	  C3	26.454	16.721	44.889	C.3	6	GOL306	0.000	
24	  O3	27.050	17.771	44.133	O.3	6	GOL306	0.000	
25	  C1	31.606	36.097	50.671	C.3	7	GOL307	0.000	
26	  O1	32.746	36.583	51.369	O.3	7	GOL307	0.000	
27	  C2	31.955	34.814	49.879	C.3	7	GOL307	0.000	
28	  O2	33.193	34.297	50.338	O.3	7	GOL307	0.000	
29	  C3	32.103	35.017	48.381	C.3	7	GOL307	0.000	
30	  O3	32.652	33.809	47.887	O.3	7	GOL307	0.000	
31	 CAA	28.918	34.392	35.555	C.3	8	A8D308	0.000	
32	 CAB	32.361	35.319	45.404	C.3	8	A8D308	0.000	
33	 CAF	32.580	34.935	35.924	C.2	8	A8D308	0.000	
34	 CAG	33.600	35.219	36.850	C.2	8	A8D308	0.000	
35	 CAH	31.023	34.769	37.770	C.2	8	A8D308	0.000	
36	 CAI	32.113	35.183	39.974	C.2	8	A8D308	0.000	
37	 CAM	33.886	35.731	41.580	C.2	8	A8D308	0.000	
38	 CAN	31.270	34.709	36.365	C.2	8	A8D308	0.000	
39	 CAO	33.382	35.481	40.320	C.2	8	A8D308	0.000	
40	 CAP	32.061	35.031	38.633	C.2	8	A8D308	0.000	
41	 CAQ	33.324	35.267	38.154	C.2	8	A8D308	0.000	
42	 NAJ	33.023	35.576	42.632	N.pl3	8	A8D308	0.000	
43	 NAK	34.136	35.535	39.191	N.pl3	8	A8D308	0.000	
44	 OAC	35.059	36.118	41.727	O.2	8	A8D308	0.000	
45	 OAD	34.862	35.235	44.479	O.2	8	A8D308	0.000	
46	 OAE	33.825	37.463	44.311	O.2	8	A8D308	0.000	
47	 OAL	30.361	34.394	35.390	O.3	8	A8D308	0.000	
48	 SAR	33.572	35.943	44.268	S.O2	8	A8D308	0.000	
@<TRIPOS>BOND
1 1 2 1
2 2 3 1
3 4 5 1
4 5 6 1
5 7 8 1
6 8 9 1
7 10 11 1
8 11 12 1
9 13 14 1
10 13 15 1
11 15 16 1
12 15 17 1
13 17 18 1
14 19 20 1
15 19 21 1
16 21 22 1
17 21 23 1
18 23 24 1
19 25 26 1
20 25 27 1
21 27 28 1
22 27 29 1
23 29 30 1
24 31 47 1
25 32 48 1
26 33 34 ar
27 33 38 ar
28 34 41 ar
29 35 38 ar
30 35 40 ar
31 36 39 ar
32 36 40 ar
33 37 39 1
34 40 41 ar
35 37 42 1
36 42 48 1
37 39 43 ar
38 41 43 ar
39 37 44 2
40 45 48 2
41 46 48 2
42 38 47 1
@<TRIPOS>SUBSTRUCTURE
1	EOH301	1	GROUP	1 A	EOH
2	EOH302	4	GROUP	1 A	EOH
3	EOH303	7	GROUP	1 A	EOH
4	EOH304	10	GROUP	1 A	EOH
5	GOL305	13	GROUP	1 A	GOL
6	GOL306	19	GROUP	1 A	GOL
7	GOL307	25	GROUP	1 A	GOL
8	A8D308	31	GROUP	1 A	A8D
