# created with PyMOL 3.1.3.1
@<TRIPOS>MOLECULE
3LE8_AB
103 99 12               
SMALL
USER_CHARGES
@<TRIPOS>ATOM
1	   N	34.052	35.166	39.437	N.2	1	2B5301	0.000	
2	  CA	35.557	34.931	39.405	C.3	1	2B5301	0.000	
3	 CAA	28.875	34.329	35.885	C.3	1	2B5301	0.000	
4	 CAE	31.045	33.953	49.299	C.2	1	2B5301	0.000	
5	 CAF	30.939	32.698	48.657	C.2	1	2B5301	0.000	
6	 CAG	32.539	34.566	36.091	C.2	1	2B5301	0.000	
7	 CAH	31.471	35.061	48.545	C.2	1	2B5301	0.000	
8	 CAI	31.304	32.586	47.316	C.2	1	2B5301	0.000	
9	 CAJ	33.580	34.690	37.028	C.2	1	2B5301	0.000	
10	 CAK	30.943	35.067	37.811	C.2	1	2B5301	0.000	
11	 CAL	31.963	35.504	40.056	C.2	1	2B5301	0.000	
12	 CAM	32.240	35.843	46.399	C.2	1	2B5301	0.000	
13	 CAN	33.830	35.753	41.847	C.3	1	2B5301	0.000	
14	 CAT	32.925	36.068	44.116	C.2	1	2B5301	0.000	
15	 CAU	31.204	34.737	36.458	C.2	1	2B5301	0.000	
16	 CAV	33.264	35.453	40.477	C.2	1	2B5301	0.000	
17	 CAW	32.455	35.354	45.178	C.2	1	2B5301	0.000	
18	 CAX	31.793	34.902	47.262	C.2	1	2B5301	0.000	
19	 CAY	31.975	35.192	38.718	C.2	1	2B5301	0.000	
20	 CAZ	31.698	33.693	46.645	C.2	1	2B5301	0.000	
21	   C	36.510	35.898	40.008	C.2	1	2B5301	0.000	
22	   O	36.141	37.023	40.141	O.co2	1	2B5301	0.000	
23	 NAP	33.178	35.250	43.066	N.pl3	1	2B5301	0.000	
24	 OAC	33.168	37.302	44.225	O.2	1	2B5301	0.000	
25	 OAQ	30.225	34.573	35.487	O.3	1	2B5301	0.000	
26	 OAR	32.158	33.870	45.202	O.2	1	2B5301	0.000	
27	 CBA	33.266	34.992	38.337	C.2	1	2B5301	0.000	
28	 OXT	37.661	35.465	40.241	O.co2	1	2B5301	0.000	
29	  C1	32.311	31.665	62.858	C.3	2	EDO302	0.000	
30	  O1	31.650	32.934	63.192	O.3	2	EDO302	0.000	
31	  C2	33.021	30.967	64.048	C.3	2	EDO302	0.000	
32	  O2	34.167	30.507	63.406	O.3	2	EDO302	0.000	
33	  C1	34.851	37.931	71.997	C.3	3	EDO303	0.000	
34	  O1	34.730	36.490	72.138	O.3	3	EDO303	0.000	
35	  C2	36.197	38.321	72.580	C.3	3	EDO303	0.000	
36	  O2	37.171	37.773	71.664	O.3	3	EDO303	0.000	
37	  C1	41.164	26.426	60.064	C.3	4	GOL304	0.000	
38	  O1	40.652	25.124	59.889	O.3	4	GOL304	0.000	
39	  C2	40.082	27.443	59.748	C.3	4	GOL304	0.000	
40	  O2	38.883	26.848	59.299	O.3	4	GOL304	0.000	
41	  C3	40.571	28.582	58.846	C.3	4	GOL304	0.000	
42	  O3	39.729	28.724	57.718	O.3	4	GOL304	0.000	
43	  C1	38.015	34.433	60.567	C.3	5	EDO305	0.000	
44	  O1	39.194	34.072	59.870	O.3	5	EDO305	0.000	
45	  C2	38.509	35.217	61.747	C.3	5	EDO305	0.000	
46	  O2	39.022	36.355	61.069	O.3	5	EDO305	0.000	
47	  C1	40.720	11.572	33.692	C.3	6	EDO306	0.000	
48	  O1	41.798	11.738	34.603	O.3	6	EDO306	0.000	
49	  C2	41.139	10.864	32.410	C.3	6	EDO306	0.000	
50	  O2	40.484	9.612	32.446	O.3	6	EDO306	0.000	
51	   O	41.246	7.315	19.508	O.3	7	EOH307	0.000	
52	  C1	39.943	7.501	18.989	C.3	7	EOH307	0.000	
53	  C2	40.074	8.356	17.754	C.3	7	EOH307	0.000	
54	  C1	16.444	19.321	52.257	C.3	8	EDO308	0.000	
55	  O1	17.592	18.920	51.479	O.3	8	EDO308	0.000	
56	  C2	16.328	18.458	53.518	C.3	8	EDO308	0.000	
57	  O2	15.050	18.651	54.129	O.3	8	EDO308	0.000	
58	   N	19.285	13.631	79.467	N.2	9	2B5301	0.000	
59	  CA	20.399	12.692	79.933	C.3	9	2B5301	0.000	
60	 CAA	15.542	18.191	81.573	C.3	9	2B5301	0.000	
61	 CAE	20.938	16.153	69.728	C.2	9	2B5301	0.000	
62	 CAF	20.130	15.193	69.120	C.2	9	2B5301	0.000	
63	 CAG	17.742	15.343	82.357	C.2	9	2B5301	0.000	
64	 CAH	21.006	16.255	71.114	C.2	9	2B5301	0.000	
65	 CAI	19.426	14.319	69.952	C.2	9	2B5301	0.000	
66	 CAJ	18.598	14.458	81.679	C.2	9	2B5301	0.000	
67	 CAK	16.953	16.075	80.212	C.2	9	2B5301	0.000	
68	 CAL	17.952	14.936	78.224	C.2	9	2B5301	0.000	
69	 CAM	20.204	15.230	73.226	C.2	9	2B5301	0.000	
70	 CAN	19.579	13.259	76.969	C.3	9	2B5301	0.000	
71	 CAT	18.980	13.603	74.578	C.2	9	2B5301	0.000	
72	 CAU	16.908	16.184	81.610	C.2	9	2B5301	0.000	
73	 CAV	18.934	13.983	78.192	C.2	9	2B5301	0.000	
74	 CAW	19.382	14.189	73.419	C.2	9	2B5301	0.000	
75	 CAX	20.324	15.376	71.879	C.2	9	2B5301	0.000	
76	 CAY	17.770	15.197	79.569	C.2	9	2B5301	0.000	
77	 CAZ	19.571	14.443	71.288	C.2	9	2B5301	0.000	
78	   C	20.447	11.289	79.410	C.2	9	2B5301	0.000	
79	   O	19.389	10.738	79.105	O.co2	9	2B5301	0.000	
80	 NAP	19.670	13.979	75.669	N.pl3	9	2B5301	0.000	
81	 OAC	18.213	12.631	74.536	O.2	9	2B5301	0.000	
82	 OAQ	16.059	17.027	82.274	O.3	9	2B5301	0.000	
83	 OAR	19.028	13.715	72.284	O.2	9	2B5301	0.000	
84	 CBA	18.612	14.405	80.317	C.2	9	2B5301	0.000	
85	 OXT	21.601	10.749	79.489	O.co2	9	2B5301	0.000	
86	  C1	37.655	25.463	64.108	C.3	10	GOL302	0.000	
87	  O1	36.319	25.083	64.393	O.3	10	GOL302	0.000	
88	  C2	38.453	25.617	65.404	C.3	10	GOL302	0.000	
89	  O2	38.310	26.943	65.839	O.3	10	GOL302	0.000	
90	  C3	37.938	24.662	66.481	C.3	10	GOL302	0.000	
91	  O3	38.956	23.866	67.041	O.3	10	GOL302	0.000	
92	  C1	25.388	16.861	47.167	C.3	11	GOL303	0.000	
93	  O1	24.651	15.659	47.130	O.3	11	GOL303	0.000	
94	  C2	25.115	17.810	46.022	C.3	11	GOL303	0.000	
95	  O2	25.893	17.313	44.963	O.3	11	GOL303	0.000	
96	  C3	23.615	17.849	45.708	C.3	11	GOL303	0.000	
97	  O3	23.358	18.585	44.532	O.3	11	GOL303	0.000	
98	  C1	17.919	29.556	60.638	C.3	12	GOL304	0.000	
99	  O1	18.757	30.712	60.758	O.3	12	GOL304	0.000	
100	  C2	18.406	28.270	61.305	C.3	12	GOL304	0.000	
101	  O2	17.492	27.252	60.949	O.3	12	GOL304	0.000	
102	  C3	18.261	28.391	62.802	C.3	12	GOL304	0.000	
103	  O3	17.424	27.373	63.271	O.3	12	GOL304	0.000	
@<TRIPOS>BOND
1 1 2 1
2 1 16 ar
3 1 27 ar
4 3 25 1
5 4 5 ar
6 4 7 ar
7 5 8 ar
8 6 9 ar
9 6 15 ar
10 7 18 ar
11 8 20 ar
12 9 27 ar
13 10 15 ar
14 10 19 ar
15 11 16 ar
16 11 19 ar
17 12 17 ar
18 12 18 ar
19 13 16 1
20 13 23 1
21 14 17 1
22 18 20 ar
23 19 27 ar
24 2 21 1
25 21 22 ar
26 21 28 ar
27 14 23 1
28 14 24 2
29 15 25 1
30 17 26 ar
31 20 26 ar
32 29 30 1
33 29 31 1
34 31 32 1
35 33 34 1
36 33 35 1
37 35 36 1
38 37 38 1
39 37 39 1
40 39 40 1
41 39 41 1
42 41 42 1
43 43 44 1
44 43 45 1
45 45 46 1
46 47 48 1
47 47 49 1
48 49 50 1
49 51 52 1
50 52 53 1
51 54 55 1
52 54 56 1
53 56 57 1
54 58 59 1
55 58 73 ar
56 58 84 ar
57 60 82 1
58 61 62 ar
59 61 64 ar
60 62 65 ar
61 63 66 ar
62 63 72 ar
63 64 75 ar
64 65 77 ar
65 66 84 ar
66 67 72 ar
67 67 76 ar
68 68 73 ar
69 68 76 ar
70 69 74 ar
71 69 75 ar
72 70 73 1
73 70 80 1
74 71 74 1
75 75 77 ar
76 76 84 ar
77 59 78 1
78 78 79 ar
79 78 85 ar
80 71 80 1
81 71 81 2
82 72 82 1
83 74 83 ar
84 77 83 ar
85 86 87 1
86 86 88 1
87 88 89 1
88 88 90 1
89 90 91 1
90 92 93 1
91 92 94 1
92 94 95 1
93 94 96 1
94 96 97 1
95 98 99 1
96 98 100 1
97 100 101 1
98 100 102 1
99 102 103 1
@<TRIPOS>SUBSTRUCTURE
1	2B5301	1	GROUP	1 A	2B5
2	EDO302	29	GROUP	1 A	EDO
3	EDO303	33	GROUP	1 A	EDO
4	GOL304	37	GROUP	1 A	GOL
5	EDO305	43	GROUP	1 A	EDO
6	EDO306	47	GROUP	1 A	EDO
7	EOH307	51	GROUP	1 A	EOH
8	EDO308	54	GROUP	1 A	EDO
9	2B5301	58	GROUP	1 B	2B5
10	GOL302	86	GROUP	1 B	GOL
11	GOL303	92	GROUP	1 B	GOL
12	GOL304	98	GROUP	1 B	GOL
