# created with PyMOL 3.1.3.1
@<TRIPOS>MOLECULE
3IMC_AB
49 45 8                 
SMALL
USER_CHARGES
@<TRIPOS>ATOM
1	 CAA	28.666	34.199	35.638	C.3	1	BZ3702	0.000	
2	 CAB	32.910	35.422	40.233	C.2	1	BZ3702	0.000	
3	 CAC	32.352	34.555	35.765	C.2	1	BZ3702	0.000	
4	 CAD	31.590	35.221	39.853	C.2	1	BZ3702	0.000	
5	 CAE	33.366	34.819	36.688	C.2	1	BZ3702	0.000	
6	 CAF	30.692	34.716	37.527	C.2	1	BZ3702	0.000	
7	 CAI	31.025	34.494	36.185	C.2	1	BZ3702	0.000	
8	 CAJ	31.707	34.977	38.452	C.2	1	BZ3702	0.000	
9	 CAK	33.021	35.033	38.032	C.2	1	BZ3702	0.000	
10	 NAG	33.731	35.295	39.153	N.pl3	1	BZ3702	0.000	
11	 OAH	30.042	34.238	35.257	O.3	1	BZ3702	0.000	
12	  C1	32.399	33.472	49.713	C.3	2	GOL707	0.000	
13	  O1	33.253	34.492	50.201	O.3	2	GOL707	0.000	
14	  C2	32.765	33.095	48.281	C.3	2	GOL707	0.000	
15	  O2	32.680	34.250	47.474	O.3	2	GOL707	0.000	
16	  C3	34.176	32.494	48.313	C.3	2	GOL707	0.000	
17	  O3	34.962	32.750	47.170	O.3	2	GOL707	0.000	
18	  C1	32.531	33.212	65.261	C.3	3	GOL709	0.000	
19	  O1	33.131	34.510	65.279	O.3	3	GOL709	0.000	
20	  C2	32.128	32.605	63.894	C.3	3	GOL709	0.000	
21	  O2	31.784	33.539	62.907	O.3	3	GOL709	0.000	
22	  C3	33.153	31.615	63.345	C.3	3	GOL709	0.000	
23	  O3	33.397	30.608	64.298	O.3	3	GOL709	0.000	
24	   O	38.164	26.485	65.667	O.3	4	EOH710	0.000	
25	  C1	38.021	25.969	64.358	C.3	4	EOH710	0.000	
26	  C2	36.771	25.108	64.254	C.3	4	EOH710	0.000	
27	   O	35.042	37.566	72.150	O.3	5	EOH711	0.000	
28	  C1	36.317	38.139	72.368	C.3	5	EOH711	0.000	
29	  C2	37.383	37.367	71.608	C.3	5	EOH711	0.000	
30	   O	39.047	33.862	59.968	O.3	6	EOH712	0.000	
31	  C1	39.209	35.124	60.564	C.3	6	EOH712	0.000	
32	  C2	38.602	35.122	61.955	C.3	6	EOH712	0.000	
33	 CAA	15.641	18.325	81.902	C.3	7	BZ3701	0.000	
34	 CAB	18.789	13.922	78.507	C.2	7	BZ3701	0.000	
35	 CAC	17.801	15.438	82.715	C.2	7	BZ3701	0.000	
36	 CAD	17.915	14.996	78.525	C.2	7	BZ3701	0.000	
37	 CAE	18.571	14.461	82.081	C.2	7	BZ3701	0.000	
38	 CAF	17.020	16.237	80.550	C.2	7	BZ3701	0.000	
39	 CAI	17.035	16.321	81.953	C.2	7	BZ3701	0.000	
40	 CAJ	17.782	15.246	79.923	C.2	7	BZ3701	0.000	
41	 CAK	18.550	14.379	80.685	C.2	7	BZ3701	0.000	
42	 NAG	19.149	13.567	79.779	N.pl3	7	BZ3701	0.000	
43	 OAH	16.298	17.268	82.617	O.3	7	BZ3701	0.000	
44	  C1	21.751	15.215	69.418	C.3	8	GOL708	0.000	
45	  O1	21.803	13.842	69.077	O.3	8	GOL708	0.000	
46	  C2	21.663	15.418	70.929	C.3	8	GOL708	0.000	
47	  O2	22.673	14.682	71.598	O.3	8	GOL708	0.000	
48	  C3	20.275	15.000	71.404	C.3	8	GOL708	0.000	
49	  O3	20.222	14.965	72.814	O.3	8	GOL708	0.000	
@<TRIPOS>BOND
1 1 11 1
2 2 4 ar
3 2 10 ar
4 3 5 ar
5 3 7 ar
6 4 8 ar
7 5 9 ar
8 6 7 ar
9 6 8 ar
10 8 9 ar
11 9 10 ar
12 7 11 1
13 12 13 1
14 12 14 1
15 14 15 1
16 14 16 1
17 16 17 1
18 18 19 1
19 18 20 1
20 20 21 1
21 20 22 1
22 22 23 1
23 24 25 1
24 25 26 1
25 27 28 1
26 28 29 1
27 30 31 1
28 31 32 1
29 33 43 1
30 34 36 ar
31 34 42 ar
32 35 37 ar
33 35 39 ar
34 36 40 ar
35 37 41 ar
36 38 39 ar
37 38 40 ar
38 40 41 ar
39 41 42 ar
40 39 43 1
41 44 45 1
42 44 46 1
43 46 47 1
44 46 48 1
45 48 49 1
@<TRIPOS>SUBSTRUCTURE
1	BZ3702	1	GROUP	1 A	BZ3
2	GOL707	12	GROUP	1 A	GOL
3	GOL709	18	GROUP	1 A	GOL
4	EOH710	24	GROUP	1 A	EOH
5	EOH711	27	GROUP	1 A	EOH
6	EOH712	30	GROUP	1 A	EOH
7	BZ3701	33	GROUP	1 B	BZ3
8	GOL708	44	GROUP	1 B	GOL
