# created with PyMOL 3.1.3.1
@<TRIPOS>MOLECULE
3IUB_AB
126 118 17              
SMALL
USER_CHARGES
@<TRIPOS>ATOM
1	 CAA	28.681	34.152	35.705	C.3	1	FG2302	0.000	
2	 CAB	38.130	32.471	45.026	C.3	1	FG2302	0.000	
3	 CAF	37.084	34.655	44.741	C.2	1	FG2302	0.000	
4	 CAG	35.923	35.406	44.523	C.2	1	FG2302	0.000	
5	 CAH	32.334	34.603	35.851	C.2	1	FG2302	0.000	
6	 CAI	33.321	34.861	36.804	C.2	1	FG2302	0.000	
7	 CAJ	35.766	32.646	44.648	C.2	1	FG2302	0.000	
8	 CAK	30.690	34.735	37.623	C.2	1	FG2302	0.000	
9	 CAL	31.648	35.174	39.851	C.2	1	FG2302	0.000	
10	 CAQ	33.416	35.593	41.480	C.2	1	FG2302	0.000	
11	 CAR	36.998	33.263	44.807	C.2	1	FG2302	0.000	
12	 CAS	31.002	34.544	36.258	C.2	1	FG2302	0.000	
13	 CAT	34.693	34.759	44.367	C.2	1	FG2302	0.000	
14	 CAU	32.923	35.354	40.239	C.2	1	FG2302	0.000	
15	 CAV	31.675	34.970	38.517	C.2	1	FG2302	0.000	
16	 CAW	32.963	35.015	38.106	C.2	1	FG2302	0.000	
17	 NAM	34.620	33.415	44.423	N.2	1	FG2302	0.000	
18	 NAN	32.600	35.379	42.527	N.pl3	1	FG2302	0.000	
19	 NAO	33.713	35.246	39.182	N.pl3	1	FG2302	0.000	
20	 OAC	34.576	35.975	41.632	O.2	1	FG2302	0.000	
21	 OAD	32.129	35.094	45.050	O.2	1	FG2302	0.000	
22	 OAE	33.403	37.144	44.386	O.2	1	FG2302	0.000	
23	 OAP	30.061	34.309	35.297	O.3	1	FG2302	0.000	
24	 SAX	33.187	35.667	44.092	S.O2	1	FG2302	0.000	
25	 CAA	48.700	21.065	57.373	C.3	2	FG2303	0.000	
26	 CAB	38.589	28.080	58.143	C.3	2	FG2303	0.000	
27	 CAF	38.764	26.269	59.726	C.2	2	FG2303	0.000	
28	 CAG	39.480	25.589	60.711	C.2	2	FG2303	0.000	
29	 CAH	45.284	20.039	57.134	C.2	2	FG2303	0.000	
30	 CAI	44.084	20.256	57.792	C.2	2	FG2303	0.000	
31	 CAJ	40.569	27.852	59.489	C.2	2	FG2303	0.000	
32	 CAK	46.136	21.994	58.231	C.2	2	FG2303	0.000	
33	 CAL	44.520	23.092	59.701	C.2	2	FG2303	0.000	
34	 CAQ	42.384	23.386	60.774	C.2	2	FG2303	0.000	
35	 CAR	39.303	27.406	59.124	C.2	2	FG2303	0.000	
36	 CAS	46.336	20.916	57.354	C.2	2	FG2303	0.000	
37	 CAT	40.747	26.066	61.076	C.2	2	FG2303	0.000	
38	 CAU	43.260	22.753	59.999	C.2	2	FG2303	0.000	
39	 CAV	44.960	22.164	58.839	C.2	2	FG2303	0.000	
40	 CAW	43.954	21.299	58.615	C.2	2	FG2303	0.000	
41	 NAM	41.269	27.152	60.478	N.2	2	FG2303	0.000	
42	 NAN	42.834	24.445	61.456	N.pl3	2	FG2303	0.000	
43	 NAO	42.902	21.674	59.323	N.pl3	2	FG2303	0.000	
44	 OAC	41.208	23.010	60.782	O.2	2	FG2303	0.000	
45	 OAD	42.364	26.314	63.210	O.2	2	FG2303	0.000	
46	 OAE	40.826	24.330	63.157	O.2	2	FG2303	0.000	
47	 OAP	47.512	20.680	56.686	O.3	2	FG2303	0.000	
48	 SAX	41.715	25.255	62.323	S.O2	2	FG2303	0.000	
49	   O	39.998	34.879	70.218	O.3	3	EOH689	0.000	
50	  C1	39.696	36.212	70.569	C.3	3	EOH689	0.000	
51	  C2	40.554	37.242	69.856	C.3	3	EOH689	0.000	
52	   O	16.345	18.182	53.599	O.3	4	EOH691	0.000	
53	  C1	15.044	17.954	54.091	C.3	4	EOH691	0.000	
54	  C2	14.414	19.267	54.515	C.3	4	EOH691	0.000	
55	  C1	32.269	31.576	62.748	C.3	5	EDO692	0.000	
56	  O1	31.677	32.842	63.091	O.3	5	EDO692	0.000	
57	  C2	33.276	31.297	63.858	C.3	5	EDO692	0.000	
58	  O2	34.189	30.287	63.460	O.3	5	EDO692	0.000	
59	  C1	42.217	29.389	46.022	C.3	6	EDO693	0.000	
60	  O1	42.720	30.699	45.741	O.3	6	EDO693	0.000	
61	  C2	40.805	29.264	45.458	C.3	6	EDO693	0.000	
62	  O2	40.827	29.177	44.027	O.3	6	EDO693	0.000	
63	  C1	35.032	37.591	71.954	C.3	7	EDO694	0.000	
64	  O1	34.963	36.171	72.133	O.3	7	EDO694	0.000	
65	  C2	36.338	38.107	72.534	C.3	7	EDO694	0.000	
66	  O2	37.387	37.588	71.716	O.3	7	EDO694	0.000	
67	  C1	31.936	34.077	49.688	C.3	8	EDO696	0.000	
68	  O1	33.257	34.394	50.145	O.3	8	EDO696	0.000	
69	  C2	31.689	34.723	48.335	C.3	8	EDO696	0.000	
70	  O2	32.728	34.293	47.449	O.3	8	EDO696	0.000	
71	  C1	37.525	29.272	20.557	C.3	9	EDO698	0.000	
72	  O1	38.172	29.174	21.839	O.3	9	EDO698	0.000	
73	  C2	36.134	29.877	20.637	C.3	9	EDO698	0.000	
74	  O2	35.235	28.879	21.128	O.3	9	EDO698	0.000	
75	 CAA	15.416	18.336	81.781	C.3	10	FG2302	0.000	
76	 CAB	25.259	12.324	74.940	C.3	10	FG2302	0.000	
77	 CAF	23.080	11.329	74.569	C.2	10	FG2302	0.000	
78	 CAG	21.683	11.453	74.492	C.2	10	FG2302	0.000	
79	 CAH	17.689	15.515	82.467	C.2	10	FG2302	0.000	
80	 CAI	18.398	14.546	81.765	C.2	10	FG2302	0.000	
81	 CAJ	23.266	13.683	75.065	C.2	10	FG2302	0.000	
82	 CAK	16.973	16.401	80.350	C.2	10	FG2302	0.000	
83	 CAL	17.874	15.142	78.393	C.2	10	FG2302	0.000	
84	 CAQ	19.152	13.391	77.236	C.2	10	FG2302	0.000	
85	 CAR	23.870	12.443	74.859	C.2	10	FG2302	0.000	
86	 CAS	16.946	16.467	81.765	C.2	10	FG2302	0.000	
87	 CAT	21.093	12.708	74.690	C.2	10	FG2302	0.000	
88	 CAU	18.700	14.088	78.317	C.2	10	FG2302	0.000	
89	 CAV	17.687	15.438	79.702	C.2	10	FG2302	0.000	
90	 CAW	18.391	14.536	80.417	C.2	10	FG2302	0.000	
91	 NAM	21.861	13.782	74.963	N.2	10	FG2302	0.000	
92	 NAN	18.784	13.808	75.995	N.pl3	10	FG2302	0.000	
93	 NAO	18.992	13.716	79.560	N.pl3	10	FG2302	0.000	
94	 OAC	19.820	12.366	77.403	O.2	10	FG2302	0.000	
95	 OAD	19.000	13.704	73.332	O.2	10	FG2302	0.000	
96	 OAE	18.635	11.557	74.519	O.2	10	FG2302	0.000	
97	 OAP	16.245	17.399	82.504	O.3	10	FG2302	0.000	
98	 SAX	19.297	12.917	74.602	S.O2	10	FG2302	0.000	
99	  C1	25.833	15.288	56.625	C.3	11	EDO690	0.000	
100	  O1	24.628	14.896	55.978	O.3	11	EDO690	0.000	
101	  C2	26.980	14.762	55.780	C.3	11	EDO690	0.000	
102	  O2	28.154	14.915	56.548	O.3	11	EDO690	0.000	
103	  C1	20.182	15.122	70.260	C.3	12	EDO695	0.000	
104	  O1	20.510	15.266	71.643	O.3	12	EDO695	0.000	
105	  C2	21.463	15.082	69.440	C.3	12	EDO695	0.000	
106	  O2	21.662	13.750	68.944	O.3	12	EDO695	0.000	
107	  C1	31.920	-0.287	101.456	C.3	13	EDO697	0.000	
108	  O1	32.595	-1.489	101.782	O.3	13	EDO697	0.000	
109	  C2	32.860	0.447	100.523	C.3	13	EDO697	0.000	
110	  O2	33.570	-0.545	99.774	O.3	13	EDO697	0.000	
111	  C1	37.931	25.696	64.151	C.3	14	EDO699	0.000	
112	  O1	36.671	25.010	64.086	O.3	14	EDO699	0.000	
113	  C2	38.499	25.526	65.558	C.3	14	EDO699	0.000	
114	  O2	38.390	24.143	65.949	O.3	14	EDO699	0.000	
115	  C1	29.566	12.797	76.232	C.3	15	EDO700	0.000	
116	  O1	29.117	13.063	77.560	O.3	15	EDO700	0.000	
117	  C2	30.062	11.357	76.152	C.3	15	EDO700	0.000	
118	  O2	28.999	10.435	76.444	O.3	15	EDO700	0.000	
119	  C1	34.892	29.510	76.510	C.3	16	EDO701	0.000	
120	  O1	34.402	30.659	75.807	O.3	16	EDO701	0.000	
121	  C2	34.315	28.257	75.876	C.3	16	EDO701	0.000	
122	  O2	34.800	28.183	74.529	O.3	16	EDO701	0.000	
123	  C1	23.255	28.603	79.674	C.3	17	EDO702	0.000	
124	  O1	22.153	27.833	79.163	O.3	17	EDO702	0.000	
125	  C2	24.541	27.853	79.351	C.3	17	EDO702	0.000	
126	  O2	24.632	27.679	77.936	O.3	17	EDO702	0.000	
@<TRIPOS>BOND
1 1 23 1
2 2 11 1
3 3 4 ar
4 3 11 ar
5 4 13 ar
6 5 6 ar
7 5 12 ar
8 6 16 ar
9 7 11 ar
10 7 17 ar
11 8 12 ar
12 8 15 ar
13 9 14 ar
14 9 15 ar
15 10 14 1
16 13 24 1
17 15 16 ar
18 13 17 ar
19 10 18 1
20 18 24 1
21 14 19 ar
22 16 19 ar
23 10 20 2
24 21 24 2
25 22 24 2
26 12 23 1
27 25 47 1
28 26 35 1
29 27 28 ar
30 27 35 ar
31 28 37 ar
32 29 30 ar
33 29 36 ar
34 30 40 ar
35 31 35 ar
36 31 41 ar
37 32 36 ar
38 32 39 ar
39 33 38 ar
40 33 39 ar
41 34 38 1
42 37 48 1
43 39 40 ar
44 37 41 ar
45 34 42 1
46 42 48 1
47 38 43 ar
48 40 43 ar
49 34 44 2
50 45 48 2
51 46 48 2
52 36 47 1
53 49 50 1
54 50 51 1
55 52 53 1
56 53 54 1
57 55 56 1
58 55 57 1
59 57 58 1
60 59 60 1
61 59 61 1
62 61 62 1
63 63 64 1
64 63 65 1
65 65 66 1
66 67 68 1
67 67 69 1
68 69 70 1
69 71 72 1
70 71 73 1
71 73 74 1
72 75 97 1
73 76 85 1
74 77 78 ar
75 77 85 ar
76 78 87 ar
77 79 80 ar
78 79 86 ar
79 80 90 ar
80 81 85 ar
81 81 91 ar
82 82 86 ar
83 82 89 ar
84 83 88 ar
85 83 89 ar
86 84 88 1
87 87 98 1
88 89 90 ar
89 87 91 ar
90 84 92 1
91 92 98 1
92 88 93 ar
93 90 93 ar
94 84 94 2
95 95 98 2
96 96 98 2
97 86 97 1
98 99 100 1
99 99 101 1
100 101 102 1
101 103 104 1
102 103 105 1
103 105 106 1
104 107 108 1
105 107 109 1
106 109 110 1
107 111 112 1
108 111 113 1
109 113 114 1
110 115 116 1
111 115 117 1
112 117 118 1
113 119 120 1
114 119 121 1
115 121 122 1
116 123 124 1
117 123 125 1
118 125 126 1
@<TRIPOS>SUBSTRUCTURE
1	FG2302	1	GROUP	1 A	FG2
2	FG2303	25	GROUP	1 A	FG2
3	EOH689	49	GROUP	1 A	EOH
4	EOH691	52	GROUP	1 A	EOH
5	EDO692	55	GROUP	1 A	EDO
6	EDO693	59	GROUP	1 A	EDO
7	EDO694	63	GROUP	1 A	EDO
8	EDO696	67	GROUP	1 A	EDO
9	EDO698	71	GROUP	1 A	EDO
10	FG2302	75	GROUP	1 B	FG2
11	EDO690	99	GROUP	1 B	EDO
12	EDO695	103	GROUP	1 B	EDO
13	EDO697	107	GROUP	1 B	EDO
14	EDO699	111	GROUP	1 B	EDO
15	EDO700	115	GROUP	1 B	EDO
16	EDO701	119	GROUP	1 B	EDO
17	EDO702	123	GROUP	1 B	EDO
