# created with PyMOL 3.1.3.1
@<TRIPOS>MOLECULE
3IVC_AB
116 111 13              
SMALL
USER_CHARGES
@<TRIPOS>ATOM
1	   N	33.798	35.154	39.304	N.2	1	FG4302	0.000	
2	  CA	35.278	34.984	39.332	C.3	1	FG4302	0.000	
3	 CAA	29.160	33.885	35.606	C.3	1	FG4302	0.000	
4	 CAE	31.950	33.142	48.441	C.2	1	FG4302	0.000	
5	 CAF	33.130	32.486	48.108	C.2	1	FG4302	0.000	
6	 CAG	32.507	34.585	35.863	C.2	1	FG4302	0.000	
7	 CAH	31.555	34.243	47.712	C.2	1	FG4302	0.000	
8	 CAI	33.926	32.921	47.056	C.2	1	FG4302	0.000	
9	 CAJ	33.478	34.687	36.863	C.2	1	FG4302	0.000	
10	 CAK	30.811	35.118	37.533	C.2	1	FG4302	0.000	
11	 CAL	32.185	35.671	45.803	C.2	1	FG4302	0.000	
12	 CAM	31.716	35.484	39.852	C.2	1	FG4302	0.000	
13	 CAN	33.321	36.719	43.839	C.3	1	FG4302	0.000	
14	 CAT	33.357	35.688	41.828	C.2	1	FG4302	0.000	
15	 CAU	31.172	34.803	36.207	C.2	1	FG4302	0.000	
16	 CAV	33.204	35.698	44.967	C.2	1	FG4302	0.000	
17	 CAW	32.962	35.436	40.325	C.2	1	FG4302	0.000	
18	 CAX	32.336	34.666	46.648	C.2	1	FG4302	0.000	
19	 CAY	31.775	35.212	38.530	C.2	1	FG4302	0.000	
20	 CAZ	33.513	34.014	46.305	C.2	1	FG4302	0.000	
21	   C	36.098	36.228	39.766	C.2	1	FG4302	0.000	
22	   O	35.530	37.334	39.937	O.co2	1	FG4302	0.000	
23	 OAC	34.395	35.210	42.284	O.co2	1	FG4302	0.000	
24	 OAP	30.226	34.725	35.236	O.3	1	FG4302	0.000	
25	 OAQ	32.598	36.443	42.696	O.3	1	FG4302	0.000	
26	 OAR	34.054	34.669	45.228	O.2	1	FG4302	0.000	
27	 CBA	33.109	34.991	38.186	C.2	1	FG4302	0.000	
28	 OXT	37.327	36.013	39.898	O.co2	1	FG4302	0.000	
29	  C1	17.352	29.239	53.512	C.3	2	GOL335	0.000	
30	  O1	17.936	30.051	52.527	O.3	2	GOL335	0.000	
31	  C2	18.381	29.014	54.606	C.3	2	GOL335	0.000	
32	  O2	19.528	29.830	54.467	O.3	2	GOL335	0.000	
33	  C3	18.893	27.598	54.603	C.3	2	GOL335	0.000	
34	  O3	20.179	27.747	55.154	O.3	2	GOL335	0.000	
35	  C1	11.431	51.372	57.964	C.3	3	GOL337	0.000	
36	  O1	11.201	50.190	57.233	O.3	3	GOL337	0.000	
37	  C2	11.105	51.016	59.393	C.3	3	GOL337	0.000	
38	  O2	11.913	51.736	60.323	O.3	3	GOL337	0.000	
39	  C3	9.598	51.198	59.500	C.3	3	GOL337	0.000	
40	  O3	9.002	49.898	59.352	O.3	3	GOL337	0.000	
41	  C1	33.217	31.808	63.326	C.3	4	GOL338	0.000	
42	  O1	33.360	30.561	64.024	O.3	4	GOL338	0.000	
43	  C2	31.956	32.574	63.743	C.3	4	GOL338	0.000	
44	  O2	31.749	33.666	62.862	O.3	4	GOL338	0.000	
45	  C3	32.165	33.196	65.160	C.3	4	GOL338	0.000	
46	  O3	33.203	34.149	65.212	O.3	4	GOL338	0.000	
47	  C1	46.925	47.100	37.401	C.3	5	GOL340	0.000	
48	  O1	47.895	46.312	36.723	O.3	5	GOL340	0.000	
49	  C2	46.053	46.277	38.356	C.3	5	GOL340	0.000	
50	  O2	46.728	45.971	39.555	O.3	5	GOL340	0.000	
51	  C3	44.805	47.025	38.775	C.3	5	GOL340	0.000	
52	  O3	44.661	46.723	40.152	O.3	5	GOL340	0.000	
53	  C1	14.708	21.039	53.065	C.3	6	GOL343	0.000	
54	  O1	15.391	21.887	53.979	O.3	6	GOL343	0.000	
55	  C2	14.494	19.674	53.711	C.3	6	GOL343	0.000	
56	  O2	15.028	19.728	55.013	O.3	6	GOL343	0.000	
57	  C3	15.198	18.564	52.936	C.3	6	GOL343	0.000	
58	  O3	16.559	18.467	53.318	O.3	6	GOL343	0.000	
59	   N	19.158	13.480	79.358	N.2	7	FG4302	0.000	
60	  CA	20.176	12.396	79.661	C.3	7	FG4302	0.000	
61	 CAA	16.565	18.384	82.071	C.3	7	FG4302	0.000	
62	 CAE	21.392	15.341	69.669	C.2	7	FG4302	0.000	
63	 CAF	22.410	15.681	70.549	C.2	7	FG4302	0.000	
64	 CAG	17.738	15.257	82.374	C.2	7	FG4302	0.000	
65	 CAH	20.298	14.657	70.165	C.2	7	FG4302	0.000	
66	 CAI	22.380	15.336	71.896	C.2	7	FG4302	0.000	
67	 CAJ	18.538	14.335	81.678	C.2	7	FG4302	0.000	
68	 CAK	16.875	16.073	80.258	C.2	7	FG4302	0.000	
69	 CAL	19.328	13.662	72.231	C.2	7	FG4302	0.000	
70	 CAM	17.852	14.880	78.268	C.2	7	FG4302	0.000	
71	 CAN	18.800	12.836	74.541	C.3	7	FG4302	0.000	
72	 CAT	19.176	13.332	76.729	C.2	7	FG4302	0.000	
73	 CAU	16.907	16.135	81.660	C.2	7	FG4302	0.000	
74	 CAV	19.697	13.570	73.501	C.2	7	FG4302	0.000	
75	 CAW	18.745	13.893	78.128	C.2	7	FG4302	0.000	
76	 CAX	20.248	14.327	71.527	C.2	7	FG4302	0.000	
77	 CAY	17.685	15.145	79.573	C.2	7	FG4302	0.000	
78	 CAZ	21.278	14.664	72.407	C.2	7	FG4302	0.000	
79	   C	19.932	10.973	79.053	C.2	7	FG4302	0.000	
80	   O	18.793	10.555	79.009	O.co2	7	FG4302	0.000	
81	 OAC	20.305	12.828	76.558	O.co2	7	FG4302	0.000	
82	 OAP	16.149	17.024	82.349	O.3	7	FG4302	0.000	
83	 OAQ	18.295	13.416	75.666	O.3	7	FG4302	0.000	
84	 OAR	20.939	14.180	73.662	O.2	7	FG4302	0.000	
85	 CBA	18.523	14.257	80.274	C.2	7	FG4302	0.000	
86	 OXT	20.890	10.287	78.669	O.co2	7	FG4302	0.000	
87	  C1	35.235	2.420	89.909	C.3	8	GOL333	0.000	
88	  O1	34.055	1.698	90.202	O.3	8	GOL333	0.000	
89	  C2	35.989	1.754	88.764	C.3	8	GOL333	0.000	
90	  O2	35.580	2.300	87.519	O.3	8	GOL333	0.000	
91	  C3	37.477	1.937	89.001	C.3	8	GOL333	0.000	
92	  O3	38.117	2.523	87.886	O.3	8	GOL333	0.000	
93	  C1	22.073	37.702	62.368	C.3	9	GOL334	0.000	
94	  O1	23.175	37.766	63.245	O.3	9	GOL334	0.000	
95	  C2	21.315	36.450	62.776	C.3	9	GOL334	0.000	
96	  O2	20.179	36.868	63.494	O.3	9	GOL334	0.000	
97	  C3	20.913	35.700	61.515	C.3	9	GOL334	0.000	
98	  O3	19.722	34.994	61.682	O.3	9	GOL334	0.000	
99	   O	17.858	27.998	61.920	O.3	10	EOH336	0.000	
100	  C1	16.970	27.093	62.568	C.3	10	EOH336	0.000	
101	  C2	15.652	27.719	63.065	C.3	10	EOH336	0.000	
102	  C1	26.852	15.311	56.384	C.3	11	GOL339	0.000	
103	  O1	28.102	14.706	56.172	O.3	11	GOL339	0.000	
104	  C2	25.701	14.363	56.061	C.3	11	GOL339	0.000	
105	  O2	24.443	14.983	56.232	O.3	11	GOL339	0.000	
106	  C3	25.749	13.893	54.606	C.3	11	GOL339	0.000	
107	  O3	25.637	12.492	54.670	O.3	11	GOL339	0.000	
108	  C1	16.509	5.800	84.618	C.3	12	GOL341	0.000	
109	  O1	16.180	6.276	83.332	O.3	12	GOL341	0.000	
110	  C2	16.053	6.807	85.685	C.3	12	GOL341	0.000	
111	  O2	17.039	7.789	85.985	O.3	12	GOL341	0.000	
112	  C3	14.722	7.444	85.301	C.3	12	GOL341	0.000	
113	  O3	13.699	6.530	85.620	O.3	12	GOL341	0.000	
114	   O	13.019	24.130	56.161	O.3	13	EOH342	0.000	
115	  C1	11.622	24.360	56.149	C.3	13	EOH342	0.000	
116	  C2	10.966	24.065	57.495	C.3	13	EOH342	0.000	
@<TRIPOS>BOND
1 1 2 1
2 1 17 ar
3 1 27 ar
4 3 24 1
5 4 5 ar
6 4 7 ar
7 5 8 ar
8 6 9 ar
9 6 15 ar
10 7 18 ar
11 8 20 ar
12 9 27 ar
13 10 15 ar
14 10 19 ar
15 11 16 ar
16 11 18 ar
17 12 17 ar
18 12 19 ar
19 13 16 1
20 13 25 1
21 14 17 1
22 18 20 ar
23 19 27 ar
24 2 21 1
25 21 22 ar
26 21 28 ar
27 14 23 2
28 15 24 1
29 14 25 1
30 16 26 ar
31 20 26 ar
32 29 30 1
33 29 31 1
34 31 32 1
35 31 33 1
36 33 34 1
37 35 36 1
38 35 37 1
39 37 38 1
40 37 39 1
41 39 40 1
42 41 42 1
43 41 43 1
44 43 44 1
45 43 45 1
46 45 46 1
47 47 48 1
48 47 49 1
49 49 50 1
50 49 51 1
51 51 52 1
52 53 54 1
53 53 55 1
54 55 56 1
55 55 57 1
56 57 58 1
57 59 60 1
58 59 75 ar
59 59 85 ar
60 61 82 1
61 62 63 ar
62 62 65 ar
63 63 66 ar
64 64 67 ar
65 64 73 ar
66 65 76 ar
67 66 78 ar
68 67 85 ar
69 68 73 ar
70 68 77 ar
71 69 74 ar
72 69 76 ar
73 70 75 ar
74 70 77 ar
75 71 74 1
76 71 83 1
77 72 75 1
78 76 78 ar
79 77 85 ar
80 60 79 1
81 79 80 ar
82 79 86 ar
83 72 81 2
84 73 82 1
85 72 83 1
86 74 84 ar
87 78 84 ar
88 87 88 1
89 87 89 1
90 89 90 1
91 89 91 1
92 91 92 1
93 93 94 1
94 93 95 1
95 95 96 1
96 95 97 1
97 97 98 1
98 99 100 1
99 100 101 1
100 102 103 1
101 102 104 1
102 104 105 1
103 104 106 1
104 106 107 1
105 108 109 1
106 108 110 1
107 110 111 1
108 110 112 1
109 112 113 1
110 114 115 1
111 115 116 1
@<TRIPOS>SUBSTRUCTURE
1	FG4302	1	GROUP	1 A	FG4
2	GOL335	29	GROUP	1 A	GOL
3	GOL337	35	GROUP	1 A	GOL
4	GOL338	41	GROUP	1 A	GOL
5	GOL340	47	GROUP	1 A	GOL
6	GOL343	53	GROUP	1 A	GOL
7	FG4302	59	GROUP	1 B	FG4
8	GOL333	87	GROUP	1 B	GOL
9	GOL334	93	GROUP	1 B	GOL
10	EOH336	99	GROUP	1 B	EOH
11	GOL339	102	GROUP	1 B	GOL
12	GOL341	108	GROUP	1 B	GOL
13	EOH342	114	GROUP	1 B	EOH
