# created with PyMOL 3.1.3.1
@<TRIPOS>MOLECULE
3IMG_AB
58 59 7                 
SMALL
USER_CHARGES
@<TRIPOS>ATOM
1	 CAC	31.269	33.967	49.546	C.2	1	BZ2301	0.000	
2	 CAD	31.654	32.736	49.018	C.2	1	BZ2301	0.000	
3	 CAE	31.477	35.129	48.818	C.2	1	BZ2301	0.000	
4	 CAF	32.237	32.655	47.764	C.2	1	BZ2301	0.000	
5	 CAG	32.368	35.977	46.672	C.2	1	BZ2301	0.000	
6	 CAI	33.410	36.227	44.390	C.2	1	BZ2301	0.000	
7	 CAJ	32.923	35.414	45.605	C.2	1	BZ2301	0.000	
8	 CAK	32.066	35.043	47.565	C.2	1	BZ2301	0.000	
9	 CAL	32.448	33.817	47.029	C.2	1	BZ2301	0.000	
10	 OAA	33.882	35.610	43.411	O.co2	1	BZ2301	0.000	
11	 OAB	33.340	37.472	44.449	O.co2	1	BZ2301	0.000	
12	 OAH	32.993	34.055	45.781	O.2	1	BZ2301	0.000	
13	 CAA	28.777	34.085	35.748	C.3	2	BZ3401	0.000	
14	 CAB	32.969	35.496	40.239	C.2	2	BZ3401	0.000	
15	 CAC	32.418	34.573	35.821	C.2	2	BZ3401	0.000	
16	 CAD	31.702	35.364	39.810	C.2	2	BZ3401	0.000	
17	 CAE	33.418	34.797	36.773	C.2	2	BZ3401	0.000	
18	 CAF	30.721	34.857	37.542	C.2	2	BZ3401	0.000	
19	 CAI	31.066	34.593	36.198	C.2	2	BZ3401	0.000	
20	 CAJ	31.726	35.096	38.495	C.2	2	BZ3401	0.000	
21	 CAK	33.068	35.067	38.105	C.2	2	BZ3401	0.000	
22	 NAG	33.793	35.322	39.196	N.pl3	2	BZ3401	0.000	
23	 OAH	30.112	34.366	35.229	O.3	2	BZ3401	0.000	
24	  C1	32.436	33.364	65.227	C.3	3	GOL705	0.000	
25	  O1	33.257	34.535	65.149	O.3	3	GOL705	0.000	
26	  C2	32.011	32.693	63.894	C.3	3	GOL705	0.000	
27	  O2	31.637	33.641	62.937	O.3	3	GOL705	0.000	
28	  C3	33.091	31.761	63.342	C.3	3	GOL705	0.000	
29	  O3	33.450	30.761	64.281	O.3	3	GOL705	0.000	
30	   O	38.364	26.521	65.560	O.3	4	EOH710	0.000	
31	  C1	37.933	26.203	64.249	C.3	4	EOH710	0.000	
32	  C2	36.693	25.320	64.314	C.3	4	EOH710	0.000	
33	   O	38.324	29.040	21.721	O.3	5	EOH711	0.000	
34	  C1	37.341	28.713	20.737	C.3	5	EOH711	0.000	
35	  C2	36.440	29.821	20.207	C.3	5	EOH711	0.000	
36	 CAC	20.856	15.437	69.333	C.2	6	BZ2302	0.000	
37	 CAD	21.821	16.044	70.124	C.2	6	BZ2302	0.000	
38	 CAE	19.956	14.552	69.903	C.2	6	BZ2302	0.000	
39	 CAF	21.898	15.774	71.488	C.2	6	BZ2302	0.000	
40	 CAG	19.307	13.472	72.042	C.2	6	BZ2302	0.000	
41	 CAI	19.174	12.744	74.447	C.2	6	BZ2302	0.000	
42	 CAJ	19.761	13.546	73.281	C.2	6	BZ2302	0.000	
43	 CAK	20.035	14.274	71.266	C.2	6	BZ2302	0.000	
44	 CAL	20.998	14.883	72.066	C.2	6	BZ2302	0.000	
45	 OAA	18.191	11.998	74.232	O.co2	6	BZ2302	0.000	
46	 OAB	19.749	12.855	75.549	O.co2	6	BZ2302	0.000	
47	 OAH	20.822	14.416	73.348	O.2	6	BZ2302	0.000	
48	 CAA	15.462	18.226	81.772	C.3	7	BZ3402	0.000	
49	 CAB	18.456	13.780	78.396	C.2	7	BZ3402	0.000	
50	 CAC	17.734	15.429	82.548	C.2	7	BZ3402	0.000	
51	 CAD	17.611	14.825	78.476	C.2	7	BZ3402	0.000	
52	 CAE	18.454	14.430	81.876	C.2	7	BZ3402	0.000	
53	 CAF	16.821	16.170	80.430	C.2	7	BZ3402	0.000	
54	 CAI	16.924	16.309	81.820	C.2	7	BZ3402	0.000	
55	 CAJ	17.525	15.164	79.763	C.2	7	BZ3402	0.000	
56	 CAK	18.349	14.300	80.488	C.2	7	BZ3402	0.000	
57	 NAG	18.907	13.458	79.619	N.pl3	7	BZ3402	0.000	
58	 OAH	16.228	17.264	82.504	O.3	7	BZ3402	0.000	
@<TRIPOS>BOND
1 1 2 ar
2 1 3 ar
3 2 4 ar
4 3 8 ar
5 4 9 ar
6 5 7 ar
7 5 8 ar
8 6 7 1
9 8 9 ar
10 6 10 ar
11 6 11 ar
12 7 12 ar
13 9 12 ar
14 13 23 1
15 14 16 ar
16 14 22 ar
17 15 17 ar
18 15 19 ar
19 16 20 ar
20 17 21 ar
21 18 19 ar
22 18 20 ar
23 20 21 ar
24 21 22 ar
25 19 23 1
26 24 25 1
27 24 26 1
28 26 27 1
29 26 28 1
30 28 29 1
31 30 31 1
32 31 32 1
33 33 34 1
34 34 35 1
35 36 37 ar
36 36 38 ar
37 37 39 ar
38 38 43 ar
39 39 44 ar
40 40 42 ar
41 40 43 ar
42 41 42 1
43 43 44 ar
44 41 45 ar
45 41 46 ar
46 42 47 ar
47 44 47 ar
48 48 58 1
49 49 51 ar
50 49 57 ar
51 50 52 ar
52 50 54 ar
53 51 55 ar
54 52 56 ar
55 53 54 ar
56 53 55 ar
57 55 56 ar
58 56 57 ar
59 54 58 1
@<TRIPOS>SUBSTRUCTURE
1	BZ2301	1	GROUP	1 A	BZ2
2	BZ3401	13	GROUP	1 A	BZ3
3	GOL705	24	GROUP	1 A	GOL
4	EOH710	30	GROUP	1 A	EOH
5	EOH711	33	GROUP	1 A	EOH
6	BZ2302	36	GROUP	1 B	BZ2
7	BZ3402	48	GROUP	1 B	BZ3
