# created with PyMOL 3.1.3.1
@<TRIPOS>MOLECULE
3KAC_B
14 15 1                 
SMALL
USER_CHARGES
@<TRIPOS>ATOM
1	  C1	56.917	13.342	47.427	C.2	1	4BX1	0.000	
2	  C2	56.911	12.268	46.545	C.2	1	4BX1	0.000	
3	  C3	57.851	12.199	45.523	C.2	1	4BX1	0.000	
4	  C4	57.865	14.350	47.290	C.2	1	4BX1	0.000	
5	  N5	59.802	15.078	45.905	N.pl3	1	4BX1	0.000	
6	  C6	58.804	14.280	46.267	C.2	1	4BX1	0.000	
7	  C7	58.797	13.208	45.388	C.2	1	4BX1	0.000	
8	  N8	59.791	13.402	44.528	N.2	1	4BX1	0.000	
9	  C9	60.404	14.542	44.843	C.2	1	4BX1	0.000	
10	 C10	61.604	15.140	44.107	C.3	1	4BX1	0.000	
11	 C11	62.837	15.181	45.011	C.3	1	4BX1	0.000	
12	 C12	63.862	16.193	44.496	C.2	1	4BX1	0.000	
13	 O13	64.381	17.002	45.264	O.co2	1	4BX1	0.000	
14	 O14	64.178	16.210	43.306	O.co2	1	4BX1	0.000	
@<TRIPOS>BOND
1 1 2 ar
2 1 4 ar
3 2 3 ar
4 3 7 ar
5 4 6 ar
6 5 6 ar
7 5 9 ar
8 6 7 ar
9 7 8 ar
10 8 9 ar
11 9 10 1
12 10 11 1
13 11 12 1
14 12 13 ar
15 12 14 ar
@<TRIPOS>SUBSTRUCTURE
1	4BX1	1	GROUP	1 B	4BX
