# created with PyMOL 3.1.3.1
@<TRIPOS>MOLECULE
2XPA_A
39 39 2                 
SMALL
USER_CHARGES
@<TRIPOS>ATOM
1	 C20	41.036	16.796	39.732	C.3	1	12P1164	0.000	
2	 C21	41.491	18.252	39.535	C.3	1	12P1164	0.000	
3	 O22	40.836	18.676	38.345	O.3	1	12P1164	0.000	
4	 C23	40.623	20.109	38.190	C.3	1	12P1164	0.000	
5	 C24	40.223	20.447	36.749	C.3	1	12P1164	0.000	
6	 O25	39.088	19.647	36.369	O.3	1	12P1164	0.000	
7	 C26	38.284	20.124	35.308	C.3	1	12P1164	0.000	
8	 C27	36.964	19.350	35.224	C.3	1	12P1164	0.000	
9	 O28	36.047	19.743	36.256	O.3	1	12P1164	0.000	
10	 C29	34.897	18.920	36.483	C.3	1	12P1164	0.000	
11	 C30	34.114	19.237	37.783	C.3	1	12P1164	0.000	
12	 O31	33.720	20.617	37.782	O.3	1	12P1164	0.000	
13	 C32	33.449	21.424	38.940	C.3	1	12P1164	0.000	
14	 C33	34.268	22.687	38.665	C.3	1	12P1164	0.000	
15	 O34	34.579	23.526	39.771	O.3	1	12P1164	0.000	
16	 C35	35.859	23.264	40.419	C.3	1	12P1164	0.000	
17	 C36	37.033	24.216	40.164	C.3	1	12P1164	0.000	
18	  N1	61.190	15.109	45.656	N.pl3	2	4G51165	0.000	
19	  C2	62.309	15.538	45.090	C.2	2	4G51165	0.000	
20	  C3	62.498	14.790	43.921	C.2	2	4G51165	0.000	
21	  N4	61.476	13.911	43.837	N.2	2	4G51165	0.000	
22	  C5	60.668	14.130	44.912	C.2	2	4G51165	0.000	
23	  C6	63.107	16.683	45.770	C.2	2	4G51165	0.000	
24	  N7	63.660	16.411	46.987	N.pl3	2	4G51165	0.000	
25	  O8	63.107	17.803	45.266	O.2	2	4G51165	0.000	
26	  C9	59.507	13.467	45.317	C.2	2	4G51165	0.000	
27	 C10	59.320	12.115	44.994	C.2	2	4G51165	0.000	
28	 C11	58.175	11.449	45.433	C.2	2	4G51165	0.000	
29	 C12	57.231	12.102	46.236	C.2	2	4G51165	0.000	
30	 C13	57.447	13.434	46.595	C.2	2	4G51165	0.000	
31	 C14	58.588	14.116	46.141	C.2	2	4G51165	0.000	
32	 C15	63.680	14.927	42.932	C.2	2	4G51165	0.000	
33	 O16	64.428	15.913	43.046	O.co2	2	4G51165	0.000	
34	 O17	63.922	14.034	42.092	O.co2	2	4G51165	0.000	
35	 C18	64.328	17.489	47.757	C.3	2	4G51165	0.000	
36	 C19	63.472	17.844	49.035	C.2	2	4G51165	0.000	
37	 N20	64.202	18.156	50.117	N.pl3	2	4G51165	0.000	
38	 O21	62.228	17.835	49.049	O.2	2	4G51165	0.000	
39	 C22	63.591	15.010	47.512	C.3	2	4G51165	0.000	
@<TRIPOS>BOND
1 1 2 1
2 2 3 1
3 3 4 1
4 4 5 1
5 5 6 1
6 6 7 1
7 7 8 1
8 8 9 1
9 9 10 1
10 10 11 1
11 11 12 1
12 12 13 1
13 13 14 1
14 14 15 1
15 15 16 1
16 16 17 1
17 18 19 ar
18 19 23 1
19 19 20 ar
20 20 32 1
21 20 21 ar
22 18 22 ar
23 21 22 ar
24 23 24 1
25 23 25 2
26 24 35 1
27 24 39 1
28 22 26 1
29 26 27 ar
30 27 28 ar
31 28 29 ar
32 29 30 ar
33 30 31 ar
34 26 31 ar
35 32 33 ar
36 32 34 ar
37 35 36 1
38 36 37 1
39 36 38 2
@<TRIPOS>SUBSTRUCTURE
1	12P1164	1	GROUP	1 A	12P
2	4G51165	18	GROUP	1 A	4G5
