# created with PyMOL 3.1.3.1
@<TRIPOS>MOLECULE
2XP4_A
32 32 2                 
SMALL
USER_CHARGES
@<TRIPOS>ATOM
1	 C18	36.845	24.203	40.377	C.3	1	12P1164	0.000	
2	 O19	35.464	24.175	39.913	O.3	1	12P1164	0.000	
3	 C20	35.144	22.844	39.498	C.3	1	12P1164	0.000	
4	 C21	33.814	22.694	38.808	C.3	1	12P1164	0.000	
5	 O22	33.558	21.287	38.839	O.3	1	12P1164	0.000	
6	 C23	34.103	20.697	37.697	C.3	1	12P1164	0.000	
7	 C24	34.352	19.286	38.081	C.3	1	12P1164	0.000	
8	 O25	34.871	18.811	36.853	O.3	1	12P1164	0.000	
9	 C26	36.310	18.840	36.681	C.3	1	12P1164	0.000	
10	 C27	36.672	19.457	35.344	C.3	1	12P1164	0.000	
11	 O28	38.091	19.764	35.239	O.3	1	12P1164	0.000	
12	 C29	38.885	19.455	36.390	C.3	1	12P1164	0.000	
13	 C30	40.098	20.317	36.498	C.3	1	12P1164	0.000	
14	 O31	40.487	20.209	37.886	O.3	1	12P1164	0.000	
15	 C32	40.866	18.852	38.145	C.3	1	12P1164	0.000	
16	 C33	41.692	18.448	39.366	C.3	1	12P1164	0.000	
17	 O34	41.724	16.965	39.380	O.3	1	12P1164	0.000	
18	 C35	40.299	16.514	39.693	C.3	1	12P1164	0.000	
19	  C1	59.190	12.127	45.063	C.2	2	G141165	0.000	
20	  C2	58.065	11.349	45.422	C.2	2	G141165	0.000	
21	  C3	57.074	11.915	46.254	C.2	2	G141165	0.000	
22	  C4	57.180	13.253	46.694	C.2	2	G141165	0.000	
23	  C5	58.280	14.041	46.286	C.2	2	G141165	0.000	
24	  C6	59.273	13.465	45.463	C.2	2	G141165	0.000	
25	  C7	60.373	14.209	45.066	C.2	2	G141165	0.000	
26	  N8	61.079	13.978	43.942	N.pl3	2	G141165	0.000	
27	  C9	62.072	14.854	43.836	C.2	2	G141165	0.000	
28	 C10	61.905	15.677	44.908	C.2	2	G141165	0.000	
29	 N11	60.918	15.273	45.718	N.2	2	G141165	0.000	
30	 C12	62.882	16.849	45.270	C.2	2	G141165	0.000	
31	 O13	62.626	17.704	46.144	O.co2	2	G141165	0.000	
32	 O14	63.921	16.922	44.656	O.co2	2	G141165	0.000	
@<TRIPOS>BOND
1 1 2 1
2 2 3 1
3 3 4 1
4 4 5 1
5 5 6 1
6 6 7 1
7 7 8 1
8 8 9 1
9 9 10 1
10 10 11 1
11 11 12 1
12 12 13 1
13 13 14 1
14 14 15 1
15 15 16 1
16 16 17 1
17 17 18 1
18 19 20 ar
19 20 21 ar
20 21 22 ar
21 22 23 ar
22 19 24 ar
23 23 24 ar
24 24 25 1
25 25 29 ar
26 25 26 ar
27 26 27 ar
28 27 28 ar
29 28 29 ar
30 28 30 1
31 30 31 ar
32 30 32 ar
@<TRIPOS>SUBSTRUCTURE
1	12P1164	1	GROUP	1 A	12P
2	G141165	19	GROUP	1 A	G14
