# created with PyMOL 3.1.3.1
@<TRIPOS>MOLECULE
2XP5_A
38 38 2                 
SMALL
USER_CHARGES
@<TRIPOS>ATOM
1	 C14	37.553	24.663	40.105	C.3	1	12P1164	0.000	
2	 C15	36.312	23.916	40.574	C.3	1	12P1164	0.000	
3	 O16	35.141	24.078	39.704	O.3	1	12P1164	0.000	
4	 C17	34.914	22.988	38.814	C.3	1	12P1164	0.000	
5	 C18	33.465	22.557	38.767	C.3	1	12P1164	0.000	
6	 O19	33.371	21.124	38.590	O.3	1	12P1164	0.000	
7	 C20	34.169	20.795	37.517	C.3	1	12P1164	0.000	
8	 C21	34.278	19.300	37.368	C.3	1	12P1164	0.000	
9	 O22	35.146	19.063	36.210	O.3	1	12P1164	0.000	
10	 C23	36.267	19.937	36.142	C.3	1	12P1164	0.000	
11	 C24	37.113	19.642	34.944	C.3	1	12P1164	0.000	
12	 O25	38.385	20.325	35.181	O.3	1	12P1164	0.000	
13	 C26	39.064	19.778	36.330	C.3	1	12P1164	0.000	
14	 C27	40.346	20.555	36.520	C.3	1	12P1164	0.000	
15	 O28	40.679	20.289	37.928	O.3	1	12P1164	0.000	
16	 C29	40.940	18.889	38.074	C.3	1	12P1164	0.000	
17	 C30	41.498	18.466	39.429	C.3	1	12P1164	0.000	
18	 O31	41.598	17.008	39.315	O.3	1	12P1164	0.000	
19	 C32	40.340	16.299	39.541	C.3	1	12P1164	0.000	
20	 C33	40.533	14.723	39.401	C.3	1	12P1164	0.000	
21	 O34	39.326	13.983	39.062	O.3	1	12P1164	0.000	
22	 C35	39.228	13.512	37.649	C.3	1	12P1164	0.000	
23	 C36	37.887	13.016	37.053	C.3	1	12P1164	0.000	
24	  C1	59.107	12.130	45.071	C.2	2	4FF1165	0.000	
25	  C2	57.987	11.392	45.511	C.2	2	4FF1165	0.000	
26	  C3	57.068	12.021	46.371	C.2	2	4FF1165	0.000	
27	  C4	57.269	13.350	46.797	C.2	2	4FF1165	0.000	
28	  C5	58.391	14.069	46.316	C.2	2	4FF1165	0.000	
29	  C6	59.315	13.472	45.448	C.2	2	4FF1165	0.000	
30	  C7	60.446	14.174	44.991	C.2	2	4FF1165	0.000	
31	  N8	61.214	13.913	43.881	N.pl3	2	4FF1165	0.000	
32	  C9	62.201	14.833	43.840	C.2	2	4FF1165	0.000	
33	 C10	62.036	15.670	44.953	C.2	2	4FF1165	0.000	
34	 N11	60.989	15.236	45.634	N.2	2	4FF1165	0.000	
35	 C12	62.944	16.898	45.344	C.2	2	4FF1165	0.000	
36	 O13	63.915	17.135	44.627	O.co2	2	4FF1165	0.000	
37	 O14	62.680	17.674	46.291	O.co2	2	4FF1165	0.000	
38	 C15	63.338	14.913	42.755	C.3	2	4FF1165	0.000	
@<TRIPOS>BOND
1 1 2 1
2 2 3 1
3 3 4 1
4 4 5 1
5 5 6 1
6 6 7 1
7 7 8 1
8 8 9 1
9 9 10 1
10 10 11 1
11 11 12 1
12 12 13 1
13 13 14 1
14 14 15 1
15 15 16 1
16 16 17 1
17 17 18 1
18 18 19 1
19 19 20 1
20 20 21 1
21 21 22 1
22 22 23 1
23 24 25 ar
24 25 26 ar
25 26 27 ar
26 27 28 ar
27 24 29 ar
28 28 29 ar
29 29 30 1
30 30 34 ar
31 30 31 ar
32 31 32 ar
33 32 38 1
34 32 33 ar
35 33 34 ar
36 33 35 1
37 35 36 ar
38 35 37 ar
@<TRIPOS>SUBSTRUCTURE
1	12P1164	1	GROUP	1 A	12P
2	4FF1165	24	GROUP	1 A	4FF
