# created with PyMOL 3.1.3.1
@<TRIPOS>MOLECULE
3KAC_A
14 15 1                 
SMALL
USER_CHARGES
@<TRIPOS>ATOM
1	  C1	56.913	13.542	47.563	C.2	1	4BX1	0.000	
2	  C2	56.736	12.530	46.625	C.2	1	4BX1	0.000	
3	  C3	57.599	12.428	45.540	C.2	1	4BX1	0.000	
4	  C4	57.954	14.450	47.417	C.2	1	4BX1	0.000	
5	  N5	59.870	15.057	45.946	N.pl3	1	4BX1	0.000	
6	  C6	58.816	14.345	46.331	C.2	1	4BX1	0.000	
7	  C7	58.639	13.338	45.397	C.2	1	4BX1	0.000	
8	  N8	59.593	13.478	44.483	N.2	1	4BX1	0.000	
9	  C9	60.344	14.527	44.818	C.2	1	4BX1	0.000	
10	 C10	61.555	15.040	44.035	C.3	1	4BX1	0.000	
11	 C11	62.839	14.892	44.854	C.3	1	4BX1	0.000	
12	 C12	63.934	15.822	44.328	C.2	1	4BX1	0.000	
13	 O13	64.431	16.676	45.059	O.co2	1	4BX1	0.000	
14	 O14	64.330	15.723	43.167	O.co2	1	4BX1	0.000	
@<TRIPOS>BOND
1 1 2 ar
2 1 4 ar
3 2 3 ar
4 3 7 ar
5 4 6 ar
6 5 6 ar
7 5 9 ar
8 6 7 ar
9 7 8 ar
10 8 9 ar
11 9 10 1
12 10 11 1
13 11 12 1
14 12 13 ar
15 12 14 ar
@<TRIPOS>SUBSTRUCTURE
1	4BX1	1	GROUP	1 A	4BX
