# created with PyMOL 3.1.3.1
@<TRIPOS>MOLECULE
3KAH_A
53 55 2                 
SMALL
USER_CHARGES
@<TRIPOS>ATOM
1	 C14	39.358	25.136	38.209	C.3	1	12P164	0.000	
2	 C15	38.714	23.888	38.804	C.3	1	12P164	0.000	
3	 O16	38.094	24.063	40.105	O.3	1	12P164	0.000	
4	 C17	36.872	24.824	40.118	C.3	1	12P164	0.000	
5	 C18	35.738	24.005	40.699	C.3	1	12P164	0.000	
6	 O19	34.712	23.962	39.712	O.3	1	12P164	0.000	
7	 C20	34.044	22.697	39.609	C.3	1	12P164	0.000	
8	 C21	34.305	22.139	38.219	C.3	1	12P164	0.000	
9	 O22	33.540	20.983	37.902	O.3	1	12P164	0.000	
10	 C23	34.175	20.024	37.030	C.3	1	12P164	0.000	
11	 C24	35.092	20.559	35.924	C.3	1	12P164	0.000	
12	 O25	36.342	19.866	35.925	O.3	1	12P164	0.000	
13	 C26	37.262	20.177	34.904	C.3	1	12P164	0.000	
14	 C27	38.521	20.857	35.454	C.3	1	12P164	0.000	
15	 O28	39.164	20.073	36.480	O.3	1	12P164	0.000	
16	 C29	40.350	20.751	36.903	C.3	1	12P164	0.000	
17	 C30	40.615	20.436	38.357	C.3	1	12P164	0.000	
18	 O31	40.841	19.043	38.434	O.3	1	12P164	0.000	
19	 C32	41.468	18.677	39.649	C.3	1	12P164	0.000	
20	 C33	41.668	17.150	39.661	C.3	1	12P164	0.000	
21	 O34	40.440	16.511	39.460	O.3	1	12P164	0.000	
22	 C35	40.530	15.055	39.304	C.3	1	12P164	0.000	
23	 C36	39.159	14.373	39.140	C.3	1	12P164	0.000	
24	 O37	38.753	13.914	37.800	O.3	1	12P164	0.000	
25	  C1	56.843	12.450	46.865	C.2	2	4DH165	0.000	
26	  C2	57.077	13.488	47.761	C.2	2	4DH165	0.000	
27	  C3	58.086	14.410	47.509	C.2	2	4DH165	0.000	
28	  C4	57.618	12.334	45.718	C.2	2	4DH165	0.000	
29	  N5	59.501	13.389	44.478	N.pl3	2	4DH165	0.000	
30	  C6	58.626	13.257	45.468	C.2	2	4DH165	0.000	
31	  C7	58.860	14.291	46.360	C.2	2	4DH165	0.000	
32	  N8	59.867	15.008	45.875	N.2	2	4DH165	0.000	
33	  C9	60.258	14.458	44.725	C.2	2	4DH165	0.000	
34	 C10	61.393	14.970	43.836	C.3	2	4DH165	0.000	
35	 C11	62.676	14.171	44.070	C.3	2	4DH165	0.000	
36	 C12	63.787	14.713	43.168	C.2	2	4DH165	0.000	
37	 O13	64.289	14.000	42.300	O.co2	2	4DH165	0.000	
38	 O14	64.190	15.868	43.301	O.co2	2	4DH165	0.000	
39	 N15	62.437	12.755	43.757	N.pl3	2	4DH165	0.000	
40	 C16	62.229	11.850	44.709	C.2	2	4DH165	0.000	
41	 C17	61.997	10.424	44.204	C.2	2	4DH165	0.000	
42	 O18	62.217	12.104	45.911	O.2	2	4DH165	0.000	
43	 N19	61.344	9.470	44.850	N.2	2	4DH165	0.000	
44	 N20	61.331	8.439	44.178	N.2	2	4DH165	0.000	
45	 C21	61.989	8.671	43.036	C.2	2	4DH165	0.000	
46	 C22	62.415	9.933	43.047	C.2	2	4DH165	0.000	
47	 C23	60.719	9.623	46.183	C.3	2	4DH165	0.000	
48	 C24	62.193	7.752	42.013	C.2	2	4DH165	0.000	
49	 C25	63.258	7.914	41.136	C.2	2	4DH165	0.000	
50	 C26	63.463	6.994	40.114	C.2	2	4DH165	0.000	
51	 C27	62.600	5.914	39.969	C.2	2	4DH165	0.000	
52	 C28	61.535	5.752	40.846	C.2	2	4DH165	0.000	
53	 C29	61.331	6.672	41.869	C.2	2	4DH165	0.000	
@<TRIPOS>BOND
1 1 2 1
2 2 3 1
3 3 4 1
4 4 5 1
5 5 6 1
6 6 7 1
7 7 8 1
8 8 9 1
9 9 10 1
10 10 11 1
11 11 12 1
12 12 13 1
13 13 14 1
14 14 15 1
15 15 16 1
16 16 17 1
17 17 18 1
18 18 19 1
19 19 20 1
20 20 21 1
21 21 22 1
22 22 23 1
23 23 24 1
24 25 26 ar
25 25 28 ar
26 26 27 ar
27 27 31 ar
28 28 30 ar
29 29 30 ar
30 29 33 ar
31 30 31 ar
32 31 32 ar
33 32 33 ar
34 33 34 1
35 34 35 1
36 35 36 1
37 35 39 1
38 36 37 ar
39 36 38 ar
40 39 40 1
41 40 41 1
42 40 42 2
43 41 43 ar
44 41 46 ar
45 43 44 ar
46 43 47 1
47 44 45 ar
48 45 46 ar
49 45 48 1
50 48 49 ar
51 48 53 ar
52 49 50 ar
53 50 51 ar
54 51 52 ar
55 52 53 ar
@<TRIPOS>SUBSTRUCTURE
1	12P164	1	GROUP	1 A	12P
2	4DH165	25	GROUP	1 A	4DH
